<?xml version="1.0" encoding="UTF-8"?>

<!-- generated on Saturday 01 June 2019 11:33:55 PM IST by Eclipse SUMO netedit Version 1.2.0
<configuration xmlns:xsi="http://www.w3.org/2001/XMLSchema-instance" xsi:noNamespaceSchemaLocation="http://sumo.dlr.de/xsd/netconvertConfiguration.xsd">

    <input>
        <sumo-net-file value="/home/dheeraj/Desktop/gwalior_map/gwalior1.net.xml"/>
    </input>

    <output>
        <output-file value="/home/dheeraj/Desktop/gwalior_map/gwalior1.net.xml"/>
    </output>

    <processing>
        <geometry.max-grade.fix value="false"/>
        <offset.disable-normalization value="true"/>
        <lefthand value="false"/>
    </processing>

    <junctions>
        <no-turnarounds value="true"/>
        <junctions.corner-detail value="5"/>
        <junctions.limit-turn-speed value="5.5"/>
        <rectangular-lane-cut value="false"/>
    </junctions>

    <pedestrian>
        <walkingareas value="false"/>
    </pedestrian>

</configuration>
-->

<net version="1.1" junctionCornerDetail="5" limitTurnSpeed="5.50" xmlns:xsi="http://www.w3.org/2001/XMLSchema-instance" xsi:noNamespaceSchemaLocation="http://sumo.dlr.de/xsd/net_file.xsd">

    <location netOffset="-208003.56,-2896649.26" convBoundary="0.00,0.00,50020.68,40444.93" origBoundary="78.072584,26.161674,78.571478,26.533813" projParameter="+proj=utm +zone=44 +ellps=WGS84 +datum=WGS84 +units=m +no_defs"/>

    <type id="highway.bridleway" priority="1" numLanes="1" speed="2.78" allow="pedestrian" oneway="1" width="2.00"/>
    <type id="highway.bus_guideway" priority="1" numLanes="1" speed="27.78" allow="bus" oneway="1"/>
    <type id="highway.cycleway" priority="1" numLanes="1" speed="8.33" allow="bicycle" oneway="0" width="1.00"/>
    <type id="highway.footway" priority="1" numLanes="1" speed="2.78" allow="pedestrian" oneway="1" width="2.00"/>
    <type id="highway.ford" priority="1" numLanes="1" speed="2.78" allow="army" oneway="0"/>
    <type id="highway.living_street" priority="2" numLanes="1" speed="2.78" disallow="tram rail_urban rail rail_electric ship" oneway="0"/>
    <type id="highway.motorway" priority="14" numLanes="2" speed="39.44" allow="private emergency authority army vip passenger hov taxi bus coach delivery truck trailer motorcycle evehicle custom1 custom2" oneway="1"/>
    <type id="highway.motorway_link" priority="9" numLanes="1" speed="22.22" allow="private emergency authority army vip passenger hov taxi bus coach delivery truck trailer motorcycle evehicle custom1 custom2" oneway="1"/>
    <type id="highway.path" priority="1" numLanes="1" speed="2.78" allow="bicycle pedestrian" oneway="1" width="2.00"/>
    <type id="highway.pedestrian" priority="1" numLanes="1" speed="2.78" allow="pedestrian" oneway="1" width="2.00"/>
    <type id="highway.primary" priority="12" numLanes="2" speed="27.78" disallow="tram rail_urban rail rail_electric ship" oneway="0"/>
    <type id="highway.primary_link" priority="7" numLanes="1" speed="22.22" disallow="tram rail_urban rail rail_electric ship" oneway="0"/>
    <type id="highway.raceway" priority="15" numLanes="2" speed="83.33" allow="vip" oneway="0"/>
    <type id="highway.residential" priority="3" numLanes="1" speed="13.89" disallow="tram rail_urban rail rail_electric ship" oneway="0"/>
    <type id="highway.secondary" priority="11" numLanes="2" speed="27.78" disallow="tram rail_urban rail rail_electric ship" oneway="0"/>
    <type id="highway.secondary_link" priority="6" numLanes="1" speed="22.22" disallow="tram rail_urban rail rail_electric ship" oneway="0"/>
    <type id="highway.service" priority="1" numLanes="1" speed="5.56" allow="delivery bicycle pedestrian" oneway="0"/>
    <type id="highway.stairs" priority="1" numLanes="1" speed="1.39" allow="pedestrian" oneway="1" width="2.00"/>
    <type id="highway.step" priority="1" numLanes="1" speed="1.39" allow="pedestrian" oneway="1" width="2.00"/>
    <type id="highway.steps" priority="1" numLanes="1" speed="1.39" allow="pedestrian" oneway="1" width="2.00"/>
    <type id="highway.tertiary" priority="10" numLanes="1" speed="22.22" disallow="tram rail_urban rail rail_electric ship" oneway="0"/>
    <type id="highway.tertiary_link" priority="5" numLanes="1" speed="22.22" disallow="tram rail_urban rail rail_electric ship" oneway="0"/>
    <type id="highway.track" priority="1" numLanes="1" speed="5.56" disallow="tram rail_urban rail rail_electric ship" oneway="0"/>
    <type id="highway.trunk" priority="13" numLanes="2" speed="27.78" disallow="tram rail_urban rail rail_electric bicycle pedestrian ship" oneway="0"/>
    <type id="highway.trunk_link" priority="8" numLanes="1" speed="22.22" disallow="tram rail_urban rail rail_electric bicycle pedestrian ship" oneway="0"/>
    <type id="highway.unclassified" priority="4" numLanes="1" speed="13.89" disallow="tram rail_urban rail rail_electric ship" oneway="0"/>
    <type id="highway.unsurfaced" priority="1" numLanes="1" speed="8.33" disallow="tram rail_urban rail rail_electric ship" oneway="0"/>
    <type id="railway.light_rail" priority="19" numLanes="1" speed="27.78" allow="rail_urban" oneway="1"/>
    <type id="railway.preserved" priority="16" numLanes="1" speed="27.78" allow="rail" oneway="1"/>
    <type id="railway.rail" priority="20" numLanes="1" speed="83.33" allow="rail rail_electric" oneway="1"/>
    <type id="railway.subway" priority="18" numLanes="1" speed="27.78" allow="rail_urban" oneway="1"/>
    <type id="railway.tram" priority="17" numLanes="1" speed="13.89" allow="tram" oneway="1"/>

    <edge id=":1109061767_0" function="internal">
        <lane id=":1109061767_0_0" index="0" disallow="tram rail_urban rail rail_electric ship" speed="13.89" length="14.76" shape="9139.87,7552.32 9134.51,7538.57"/>
    </edge>
    <edge id=":1109061767_1" function="internal">
        <lane id=":1109061767_1_0" index="0" disallow="tram rail_urban rail rail_electric ship" speed="7.82" length="6.35" shape="9139.87,7552.32 9138.81,7548.39 9139.18,7546.14"/>
    </edge>
    <edge id=":1109061767_2" function="internal">
        <lane id=":1109061767_2_0" index="0" disallow="tram rail_urban rail rail_electric ship" speed="3.65" length="2.34" shape="9139.87,7552.32 9140.13,7550.90 9140.71,7550.22"/>
    </edge>
    <edge id=":1109061767_9" function="internal">
        <lane id=":1109061767_9_0" index="0" disallow="tram rail_urban rail rail_electric ship" speed="7.82" length="8.27" shape="9139.18,7546.14 9139.33,7545.19 9141.43,7542.72 9145.10,7540.98"/>
    </edge>
    <edge id=":1109061767_10" function="internal">
        <lane id=":1109061767_10_0" index="0" disallow="tram rail_urban rail rail_electric ship" speed="3.65" length="2.34" shape="9140.71,7550.22 9141.60,7550.27 9142.81,7551.05"/>
    </edge>
    <edge id=":1109061767_3" function="internal">
        <lane id=":1109061767_3_0" index="0" disallow="tram rail_urban rail rail_electric ship" speed="6.29" length="9.04" shape="9146.05,7544.04 9143.77,7545.11 9142.48,7546.64 9142.15,7548.62 9142.81,7551.05"/>
    </edge>
    <edge id=":1109061767_4" function="internal">
        <lane id=":1109061767_4_0" index="0" disallow="tram rail_urban rail rail_electric ship" speed="8.17" length="14.45" shape="9146.05,7544.04 9142.06,7544.70 9138.81,7544.01 9136.29,7541.97 9134.51,7538.57"/>
    </edge>
    <edge id=":1109061767_5" function="internal">
        <lane id=":1109061767_5_0" index="0" disallow="tram rail_urban rail rail_electric ship" speed="3.65" length="4.67" shape="9146.05,7544.04 9144.66,7543.63 9144.05,7542.98 9144.19,7542.10 9145.10,7540.98"/>
    </edge>
    <edge id=":1109061767_6" function="internal">
        <lane id=":1109061767_6_0" index="0" disallow="tram rail_urban rail rail_electric ship" speed="6.71" length="9.42" shape="9137.53,7537.52 9138.69,7539.70 9140.34,7541.00 9142.47,7541.43 9145.10,7540.98"/>
    </edge>
    <edge id=":1109061767_7" function="internal">
        <lane id=":1109061767_7_0" index="0" disallow="tram rail_urban rail rail_electric ship" speed="13.89" length="14.53" shape="9137.53,7537.52 9142.81,7551.05"/>
    </edge>
    <edge id=":1109061767_8" function="internal">
        <lane id=":1109061767_8_0" index="0" disallow="tram rail_urban rail rail_electric ship" speed="3.65" length="2.34" shape="9137.53,7537.52 9137.17,7538.91 9136.55,7539.56"/>
    </edge>
    <edge id=":1109061767_11" function="internal">
        <lane id=":1109061767_11_0" index="0" disallow="tram rail_urban rail rail_electric ship" speed="3.65" length="2.34" shape="9136.55,7539.56 9135.66,7539.44 9134.51,7538.57"/>
    </edge>
    <edge id=":1109061777_0" function="internal">
        <lane id=":1109061777_0_0" index="0" disallow="tram rail_urban rail rail_electric ship" speed="10.26" length="14.52" shape="9556.47,7991.13 9550.80,7992.03 9546.62,7993.00 9543.94,7994.02 9542.74,7995.11"/>
    </edge>
    <edge id=":1109061777_1" function="internal">
        <lane id=":1109061777_1_0" index="0" disallow="tram rail_urban rail rail_electric ship" speed="8.96" length="21.22" shape="9556.04,7987.96 9550.02,7987.91 9545.91,7985.88 9543.71,7981.85 9543.42,7975.83"/>
    </edge>
    <edge id=":1109061777_2" function="internal">
        <lane id=":1109061777_2_0" index="0" disallow="tram rail_urban rail rail_electric ship" speed="3.65" length="2.56" shape="9556.04,7987.96 9554.75,7987.33 9554.24,7986.59 9554.31,7986.38"/>
    </edge>
    <edge id=":1109061777_10" function="internal">
        <lane id=":1109061777_10_0" index="0" disallow="tram rail_urban rail rail_electric ship" speed="3.65" length="2.11" shape="9554.31,7986.38 9554.53,7985.75 9555.61,7984.79"/>
    </edge>
    <edge id=":1109061777_3" function="internal">
        <lane id=":1109061777_3_0" index="0" disallow="tram rail_urban rail rail_electric ship" speed="6.07" length="9.07" shape="9549.79,7976.44 9549.91,7979.01 9550.85,7980.73 9552.61,7981.60 9555.18,7981.62"/>
    </edge>
    <edge id=":1109061777_4" function="internal">
        <lane id=":1109061777_4_0" index="0" disallow="tram rail_urban rail rail_electric ship" speed="7.65" length="15.15" shape="9546.60,7976.14 9546.81,7980.43 9548.38,7983.30 9551.32,7984.76 9555.61,7984.79"/>
    </edge>
    <edge id=":1109061777_5" function="internal">
        <lane id=":1109061777_5_0" index="0" disallow="tram rail_urban rail rail_electric ship" speed="25.00" length="19.43" shape="9546.60,7976.14 9545.88,7982.51 9545.03,7987.50 9544.00,7991.54 9542.74,7995.11"/>
    </edge>
    <edge id=":1109061777_6" function="internal">
        <lane id=":1109061777_6_0" index="0" disallow="tram rail_urban rail rail_electric ship" speed="3.65" length="2.08" shape="9546.60,7976.14 9545.69,7977.26 9545.10,7977.49"/>
    </edge>
    <edge id=":1109061777_11" function="internal">
        <lane id=":1109061777_11_0" index="0" disallow="tram rail_urban rail rail_electric ship" speed="3.65" length="2.59" shape="9545.10,7977.49 9544.86,7977.58 9544.10,7977.10 9543.42,7975.83"/>
    </edge>
    <edge id=":1109061777_7" function="internal">
        <lane id=":1109061777_7_0" index="0" disallow="tram rail_urban rail rail_electric ship" speed="25.00" length="18.48" shape="9539.77,7993.92 9540.51,7990.37 9540.37,7986.42 9540.06,7981.61 9540.23,7975.53"/>
    </edge>
    <edge id=":1109061777_8" function="internal">
        <lane id=":1109061777_8_0" index="0" disallow="tram rail_urban rail rail_electric ship" speed="11.71" length="19.11" shape="9539.77,7993.92 9541.87,7990.58 9545.21,7987.95 9549.79,7986.02 9555.61,7984.79"/>
    </edge>
    <edge id=":1109061777_9" function="internal">
        <lane id=":1109061777_9_0" index="0" disallow="tram rail_urban rail rail_electric ship" speed="3.65" length="4.67" shape="9539.77,7993.92 9540.96,7993.10 9541.85,7993.03 9542.45,7993.70 9542.74,7995.11"/>
    </edge>
    <edge id=":1109061830_0" function="internal">
        <lane id=":1109061830_0_0" index="0" disallow="tram rail_urban rail rail_electric ship" speed="6.08" length="9.05" shape="9031.22,6373.38 9033.79,6373.46 9035.53,6374.36 9036.44,6376.10 9036.53,6378.66"/>
    </edge>
    <edge id=":1109061830_1" function="internal">
        <lane id=":1109061830_1_0" index="0" disallow="tram rail_urban rail rail_electric ship" speed="3.91" length="3.02" shape="9033.35,6378.32 9033.32,6377.47 9033.02,6376.89 9032.44,6376.58 9031.58,6376.56"/>
    </edge>
    <edge id=":1109061893_0" function="internal">
        <lane id=":1109061893_0_0" index="0" disallow="tram rail_urban rail rail_electric ship" speed="3.65" length="4.67" shape="9223.02,5603.49 9223.64,5602.19 9224.37,5601.68 9225.22,5601.96 9226.18,5603.03"/>
    </edge>
    <edge id=":1109061928_0" function="internal">
        <lane id=":1109061928_0_0" index="0" disallow="tram rail_urban rail rail_electric ship" speed="8.57" length="2.68" shape="9461.66,8037.82 9461.19,8038.34 9461.13,8038.89 9461.16,8039.52 9460.93,8040.28"/>
    </edge>
    <edge id=":1109061928_1" function="internal">
        <lane id=":1109061928_1_0" index="0" disallow="tram rail_urban rail rail_electric ship" speed="3.65" length="1.44" shape="9461.66,8037.82 9460.22,8037.81"/>
    </edge>
    <edge id=":1109061928_4" function="internal">
        <lane id=":1109061928_4_0" index="0" disallow="tram rail_urban rail rail_electric ship" speed="3.65" length="3.23" shape="9460.22,8037.81 9459.45,8037.36 9459.34,8036.47 9459.91,8035.14"/>
    </edge>
    <edge id=":1109061928_2" function="internal">
        <lane id=":1109061928_2_0" index="0" disallow="tram rail_urban rail rail_electric ship" speed="10.47" length="4.09" shape="9458.14,8038.70 9458.60,8037.57 9458.77,8036.68 9459.07,8035.91 9459.91,8035.14"/>
    </edge>
    <edge id=":1109061928_3" function="internal">
        <lane id=":1109061928_3_0" index="0" disallow="tram rail_urban rail rail_electric ship" speed="3.65" length="1.62" shape="9458.14,8038.70 9459.43,8038.05 9459.61,8038.06"/>
    </edge>
    <edge id=":1109061928_5" function="internal">
        <lane id=":1109061928_5_0" index="0" disallow="tram rail_urban rail rail_electric ship" speed="3.65" length="3.05" shape="9459.61,8038.06 9460.32,8038.10 9460.82,8038.84 9460.93,8040.28"/>
    </edge>
    <edge id=":1109061932_0" function="internal">
        <lane id=":1109061932_0_0" index="0" disallow="tram rail_urban rail rail_electric ship" speed="3.65" length="4.67" shape="9154.46,7636.07 9153.50,7637.16 9152.66,7637.45 9151.92,7636.94 9151.28,7635.65"/>
    </edge>
    <edge id=":1109061957_0" function="internal">
        <lane id=":1109061957_0_0" index="0" disallow="tram rail_urban rail rail_electric ship" speed="10.71" length="5.57" shape="9159.26,7589.26 9159.88,7590.78 9160.17,7591.88 9160.19,7593.02 9160.00,7594.66"/>
    </edge>
    <edge id=":1109061957_1" function="internal">
        <lane id=":1109061957_1_0" index="0" disallow="tram rail_urban rail rail_electric ship" speed="3.65" length="2.34" shape="9159.26,7589.26 9159.00,7590.68 9158.42,7591.36"/>
    </edge>
    <edge id=":1109061957_4" function="internal">
        <lane id=":1109061957_4_0" index="0" disallow="tram rail_urban rail rail_electric ship" speed="3.65" length="2.34" shape="9158.42,7591.36 9157.53,7591.31 9156.32,7590.52"/>
    </edge>
    <edge id=":1109061957_2" function="internal">
        <lane id=":1109061957_2_0" index="0" disallow="tram rail_urban rail rail_electric ship" speed="8.95" length="3.83" shape="9156.83,7594.23 9156.96,7593.11 9156.94,7592.33 9156.74,7591.57 9156.32,7590.52"/>
    </edge>
    <edge id=":1109061957_3" function="internal">
        <lane id=":1109061957_3_0" index="0" disallow="tram rail_urban rail rail_electric ship" speed="3.65" length="2.34" shape="9156.83,7594.23 9157.78,7593.15 9158.63,7592.86"/>
    </edge>
    <edge id=":1109061957_5" function="internal">
        <lane id=":1109061957_5_0" index="0" disallow="tram rail_urban rail rail_electric ship" speed="3.65" length="2.34" shape="9158.63,7592.86 9159.37,7593.36 9160.00,7594.66"/>
    </edge>
    <edge id=":1151909714_0" function="internal">
        <lane id=":1151909714_0_0" index="0" disallow="tram rail_urban rail rail_electric ship" speed="27.78" length="0.37" shape="9915.47,7931.05 9915.03,7931.01"/>
        <lane id=":1151909714_0_1" index="1" disallow="tram rail_urban rail rail_electric ship" speed="27.78" length="0.37" shape="9915.66,7927.85 9915.36,7927.83"/>
    </edge>
    <edge id=":1151909714_2" function="internal">
        <lane id=":1151909714_2_0" index="0" disallow="tram rail_urban rail rail_electric ship" speed="27.78" length="0.14" shape="9916.01,7921.46 9916.06,7921.47"/>
        <lane id=":1151909714_2_1" index="1" disallow="tram rail_urban rail rail_electric ship" speed="27.78" length="0.14" shape="9915.68,7924.65 9915.86,7924.66"/>
    </edge>
    <edge id=":1151909754_0" function="internal">
        <lane id=":1151909754_0_0" index="0" disallow="tram rail_urban rail rail_electric ship" speed="7.95" length="15.45" shape="10359.22,7987.48 10355.02,7989.48 10352.39,7991.85 10351.33,7994.59 10351.85,7997.69"/>
        <lane id=":1151909754_0_1" index="1" disallow="tram rail_urban rail rail_electric ship" speed="9.73" length="15.45" shape="10358.13,7984.47 10353.88,7986.57 10350.91,7989.32 10349.22,7992.70 10348.81,7996.72"/>
    </edge>
    <edge id=":1151909754_2" function="internal">
        <lane id=":1151909754_2_0" index="0" disallow="tram rail_urban rail rail_electric ship" speed="16.79" length="15.28" shape="10358.13,7984.47 10354.38,7986.99 10352.23,7990.00 10350.02,7992.26 10346.12,7992.51"/>
    </edge>
    <edge id=":1151909754_3" function="internal">
        <lane id=":1151909754_3_0" index="0" disallow="tram rail_urban rail rail_electric ship" speed="15.41" length="12.83" shape="10358.13,7984.47 10354.76,7986.31 10352.55,7988.22 10350.30,7989.47 10346.81,7989.39"/>
    </edge>
    <edge id=":1151909754_4" function="internal">
        <lane id=":1151909754_4_0" index="0" disallow="tram rail_urban rail rail_electric ship" speed="11.10" length="5.01" shape="10348.17,7983.14 10347.55,7983.86 10347.95,7986.53 10348.36,7987.83"/>
    </edge>
    <edge id=":1151909754_5" function="internal">
        <lane id=":1151909754_5_0" index="0" disallow="tram rail_urban rail rail_electric ship" speed="7.77" length="1.70" shape="10347.49,7986.26 10348.10,7987.85"/>
    </edge>
    <edge id=":1151909754_6" function="internal">
        <lane id=":1151909754_6_0" index="0" disallow="tram rail_urban rail rail_electric ship" speed="3.65" length="1.99" shape="10347.49,7986.26 10348.49,7987.30 10348.63,7987.83"/>
    </edge>
    <edge id=":1151909754_7" function="internal">
        <lane id=":1151909754_7_0" index="0" disallow="tram rail_urban rail rail_electric ship" speed="11.10" length="10.47" shape="10348.36,7987.83 10349.39,7991.14 10351.85,7997.69"/>
    </edge>
    <edge id=":1151909754_8" function="internal">
        <lane id=":1151909754_8_0" index="0" disallow="tram rail_urban rail rail_electric ship" speed="7.77" length="8.91" shape="10348.10,7987.85 10348.49,7991.20 10348.71,7994.70 10348.81,7996.72"/>
    </edge>
    <edge id=":1151909754_9" function="internal">
        <lane id=":1151909754_9_0" index="0" disallow="tram rail_urban rail rail_electric ship" speed="3.65" length="2.68" shape="10348.63,7987.83 10348.71,7988.17 10348.15,7988.86 10346.81,7989.39"/>
    </edge>
    <edge id=":1151912869_0" function="internal">
        <lane id=":1151912869_0_0" index="0" disallow="tram rail_urban rail rail_electric ship" speed="6.63" length="9.41" shape="10098.14,7943.12 10095.67,7943.05 10093.74,7943.84 10092.36,7945.51 10091.52,7948.05"/>
    </edge>
    <edge id=":1151912869_1" function="internal">
        <lane id=":1151912869_1_0" index="0" disallow="tram rail_urban rail rail_electric ship" speed="27.78" length="14.81" shape="10098.14,7943.12 10093.88,7942.35 10090.94,7941.92 10087.98,7941.66 10083.65,7941.39"/>
        <lane id=":1151912869_1_1" index="1" disallow="tram rail_urban rail rail_electric ship" speed="27.78" length="14.81" shape="10098.73,7939.98 10094.35,7939.18 10091.33,7938.74 10088.29,7938.47 10083.85,7938.19"/>
    </edge>
    <edge id=":1151912869_3" function="internal">
        <lane id=":1151912869_3_0" index="0" disallow="tram rail_urban rail rail_electric ship" speed="3.65" length="2.34" shape="10098.73,7939.98 10097.70,7938.97 10097.45,7938.11"/>
    </edge>
    <edge id=":1151912869_11" function="internal">
        <lane id=":1151912869_11_0" index="0" disallow="tram rail_urban rail rail_electric ship" speed="3.65" length="2.34" shape="10097.45,7938.11 10097.99,7937.40 10099.31,7936.83"/>
    </edge>
    <edge id=":1151912869_4" function="internal">
        <lane id=":1151912869_4_0" index="0" disallow="tram rail_urban rail rail_electric ship" speed="27.78" length="15.59" shape="10084.24,7931.81 10088.92,7932.10 10092.11,7932.39 10095.29,7932.85 10099.90,7933.68"/>
        <lane id=":1151912869_4_1" index="1" disallow="tram rail_urban rail rail_electric ship" speed="27.78" length="15.59" shape="10084.04,7935.00 10088.60,7935.29 10091.72,7935.56 10094.82,7936.02 10099.31,7936.83"/>
    </edge>
    <edge id=":1151912869_6" function="internal">
        <lane id=":1151912869_6_0" index="0" disallow="tram rail_urban rail rail_electric ship" speed="8.47" length="5.58" shape="10084.04,7935.00 10088.20,7936.04 10089.13,7936.94"/>
    </edge>
    <edge id=":1151912869_7" function="internal">
        <lane id=":1151912869_7_0" index="0" disallow="tram rail_urban rail rail_electric ship" speed="3.65" length="2.34" shape="10084.04,7935.00 10085.19,7935.87 10085.54,7936.70"/>
    </edge>
    <edge id=":1151912869_12" function="internal">
        <lane id=":1151912869_12_0" index="0" disallow="tram rail_urban rail rail_electric ship" speed="8.47" length="12.00" shape="10089.13,7936.94 10090.83,7938.57 10091.93,7942.57 10091.52,7948.05"/>
    </edge>
    <edge id=":1151912869_13" function="internal">
        <lane id=":1151912869_13_0" index="0" disallow="tram rail_urban rail rail_electric ship" speed="3.65" length="2.34" shape="10085.54,7936.70 10085.09,7937.47 10083.85,7938.19"/>
    </edge>
    <edge id=":1151912869_8" function="internal">
        <lane id=":1151912869_8_0" index="0" disallow="tram rail_urban rail rail_electric ship" speed="6.25" length="9.05" shape="10088.38,7947.46 10088.48,7944.94 10087.73,7943.08 10086.12,7941.90 10083.65,7941.39"/>
    </edge>
    <edge id=":1151912869_9" function="internal">
        <lane id=":1151912869_9_0" index="0" disallow="tram rail_urban rail rail_electric ship" speed="8.77" length="17.23" shape="10088.38,7947.46 10089.92,7942.21 10092.26,7938.68 10095.39,7936.89 10099.31,7936.83"/>
    </edge>
    <edge id=":1151912869_10" function="internal">
        <lane id=":1151912869_10_0" index="0" disallow="tram rail_urban rail rail_electric ship" speed="3.65" length="4.67" shape="10088.38,7947.46 10089.38,7946.43 10090.24,7946.18 10090.96,7946.72 10091.52,7948.05"/>
    </edge>
    <edge id=":1467490458_0" function="internal">
        <lane id=":1467490458_0_0" index="0" disallow="tram rail_urban rail rail_electric ship" speed="6.59" length="6.83" shape="10544.96,8041.21 10544.53,8040.02 10543.51,8039.00 10541.90,8038.15 10539.70,8037.46"/>
    </edge>
    <edge id=":1467490458_1" function="internal">
        <lane id=":1467490458_1_0" index="0" disallow="tram rail_urban rail rail_electric ship" speed="3.65" length="4.68" shape="10544.96,8041.21 10545.58,8039.91 10546.32,8039.40 10547.17,8039.68 10548.13,8040.76"/>
    </edge>
    <edge id=":1467490458_2" function="internal">
        <lane id=":1467490458_2_0" index="0" disallow="tram rail_urban rail rail_electric ship" speed="5.02" length="6.29" shape="10554.10,8041.00 10551.43,8040.42 10549.55,8040.18 10548.45,8040.30 10548.13,8040.76"/>
    </edge>
    <edge id=":1467490458_3" function="internal">
        <lane id=":1467490458_3_0" index="0" disallow="tram rail_urban rail rail_electric ship" speed="27.78" length="14.83" shape="10554.10,8041.00 10539.70,8037.46"/>
        <lane id=":1467490458_3_1" index="1" disallow="tram rail_urban rail rail_electric ship" speed="27.78" length="14.83" shape="10554.87,8037.89 10540.46,8034.35"/>
    </edge>
    <edge id=":1467490597_0" function="internal">
        <lane id=":1467490597_0_0" index="0" disallow="tram rail_urban rail rail_electric ship" speed="3.65" length="4.67" shape="11631.62,8753.47 11633.06,8753.59 11633.80,8754.09 11633.84,8754.98 11633.18,8756.27"/>
    </edge>
    <edge id=":1467490638_0" function="internal">
        <lane id=":1467490638_0_0" index="0" disallow="tram rail_urban rail rail_electric ship" speed="3.65" length="4.67" shape="10805.26,8829.58 10806.64,8830.02 10807.25,8830.67 10807.09,8831.55 10806.16,8832.66"/>
    </edge>
    <edge id=":1467490656_0" function="internal">
        <lane id=":1467490656_0_0" index="0" disallow="tram rail_urban rail rail_electric ship" speed="3.65" length="4.67" shape="10933.50,8863.94 10933.02,8865.30 10932.34,8865.88 10931.46,8865.69 10930.40,8864.72"/>
    </edge>
    <edge id=":1467490669_0" function="internal">
        <lane id=":1467490669_0_0" index="0" disallow="tram rail_urban rail rail_electric ship" speed="3.65" length="4.67" shape="11053.22,8889.55 11054.62,8889.89 11055.27,8890.50 11055.17,8891.39 11054.32,8892.55"/>
    </edge>
    <edge id=":1467490698_0" function="internal">
        <lane id=":1467490698_0_0" index="0" disallow="tram rail_urban rail rail_electric ship" speed="3.65" length="4.67" shape="11028.00,8932.66 11029.43,8932.88 11030.12,8933.44 11030.09,8934.34 11029.34,8935.56"/>
    </edge>
    <edge id=":1467490718_0" function="internal">
        <lane id=":1467490718_0_0" index="0" disallow="tram rail_urban rail rail_electric ship" speed="13.89" length="14.46" shape="10897.54,8966.12 10893.69,8952.19"/>
    </edge>
    <edge id=":1467490718_1" function="internal">
        <lane id=":1467490718_1_0" index="0" disallow="tram rail_urban rail rail_electric ship" speed="8.47" length="5.72" shape="10897.54,8966.12 10897.10,8962.44 10897.65,8960.51"/>
    </edge>
    <edge id=":1467490718_2" function="internal">
        <lane id=":1467490718_2_0" index="0" disallow="tram rail_urban rail rail_electric ship" speed="3.65" length="2.34" shape="10897.54,8966.12 10897.99,8964.75 10898.66,8964.15"/>
    </edge>
    <edge id=":1467490718_9" function="internal">
        <lane id=":1467490718_9_0" index="0" disallow="tram rail_urban rail rail_electric ship" speed="8.47" length="8.70" shape="10897.65,8960.51 10897.98,8959.31 10900.18,8956.72 10903.69,8954.67"/>
    </edge>
    <edge id=":1467490718_10" function="internal">
        <lane id=":1467490718_10_0" index="0" disallow="tram rail_urban rail rail_electric ship" speed="3.65" length="2.34" shape="10898.66,8964.15 10899.53,8964.33 10900.62,8965.27"/>
    </edge>
    <edge id=":1467490718_3" function="internal">
        <lane id=":1467490718_3_0" index="0" disallow="tram rail_urban rail rail_electric ship" speed="7.07" length="9.74" shape="10904.94,8957.62 10902.51,8959.01 10900.98,8960.75 10900.35,8962.84 10900.62,8965.27"/>
    </edge>
    <edge id=":1467490718_4" function="internal">
        <lane id=":1467490718_4_0" index="0" disallow="tram rail_urban rail rail_electric ship" speed="7.78" length="14.72" shape="10904.94,8957.62 10900.96,8958.67 10897.76,8958.12 10895.34,8955.96 10893.69,8952.19"/>
    </edge>
    <edge id=":1467490718_5" function="internal">
        <lane id=":1467490718_5_0" index="0" disallow="tram rail_urban rail rail_electric ship" speed="3.65" length="4.67" shape="10904.94,8957.62 10903.52,8957.35 10902.84,8956.77 10902.90,8955.88 10903.69,8954.67"/>
    </edge>
    <edge id=":1467490718_6" function="internal">
        <lane id=":1467490718_6_0" index="0" disallow="tram rail_urban rail rail_electric ship" speed="6.24" length="9.05" shape="10896.77,8951.34 10897.79,8953.65 10899.28,8954.98 10901.24,8955.32 10903.69,8954.67"/>
    </edge>
    <edge id=":1467490718_7" function="internal">
        <lane id=":1467490718_7_0" index="0" disallow="tram rail_urban rail rail_electric ship" speed="13.89" length="14.46" shape="10896.77,8951.34 10900.62,8965.27"/>
    </edge>
    <edge id=":1467490718_8" function="internal">
        <lane id=":1467490718_8_0" index="0" disallow="tram rail_urban rail rail_electric ship" speed="3.65" length="2.34" shape="10896.77,8951.34 10896.32,8952.71 10895.66,8953.30"/>
    </edge>
    <edge id=":1467490718_11" function="internal">
        <lane id=":1467490718_11_0" index="0" disallow="tram rail_urban rail rail_electric ship" speed="3.65" length="2.34" shape="10895.66,8953.30 10894.78,8953.13 10893.69,8952.19"/>
    </edge>
    <edge id=":1467490742_0" function="internal">
        <lane id=":1467490742_0_0" index="0" disallow="tram rail_urban rail rail_electric ship" speed="13.89" length="14.68" shape="10913.66,8988.71 10900.19,8994.55"/>
    </edge>
    <edge id=":1467490742_1" function="internal">
        <lane id=":1467490742_1_0" index="0" disallow="tram rail_urban rail rail_electric ship" speed="7.74" length="6.23" shape="10913.66,8988.71 10909.67,8989.89 10907.63,8989.59"/>
    </edge>
    <edge id=":1467490742_2" function="internal">
        <lane id=":1467490742_2_0" index="0" disallow="tram rail_urban rail rail_electric ship" speed="3.65" length="2.34" shape="10913.66,8988.71 10912.24,8988.49 10911.54,8987.93"/>
    </edge>
    <edge id=":1467490742_9" function="internal">
        <lane id=":1467490742_9_0" index="0" disallow="tram rail_urban rail rail_electric ship" speed="7.74" length="8.61" shape="10907.63,8989.59 10906.45,8989.41 10904.00,8987.26 10902.33,8983.45"/>
    </edge>
    <edge id=":1467490742_10" function="internal">
        <lane id=":1467490742_10_0" index="0" disallow="tram rail_urban rail rail_electric ship" speed="3.65" length="2.34" shape="10911.54,8987.93 10911.57,8987.03 10912.32,8985.81"/>
    </edge>
    <edge id=":1467490742_3" function="internal">