<additional>

<inductionLoop id="0" lane="R1_0" pos="-100" freq="900" file="out1.xml"/>
<inductionLoop id="1" lane="R1_1" pos="-100" freq="900" file="out1.xml"/>
<inductionLoop id="2" lane="R4_0" pos="-100" freq="900" file="out1.xml"/>
<inductionLoop id="3" lane="R4_1" pos="-100" freq="900" file="out1.xml"/>
<inductionLoop id="4" lane="R6_0" pos="-100" freq="900" file="out1.xml"/>
<inductionLoop id="5" lane="R6_1" pos="-100" freq="900" file="out1.xml"/>
<inductionLoop id="6" lane="R5_0" pos="-100" freq="900" file="out1.xml"/>
<inductionLoop id="7" lane="R5_1" pos="-100" freq="900" file="out1.xml"/>
<inductionLoop id="8" lane="R7_0" pos="-100" freq="900" file="out1.xml"/>
<inductionLoop id="9" lane="R7_1" pos="-100" freq="900" file="out1.xml"/>
<inductionLoop id="10" lane="R10_0" pos="-100" freq="900" file="out1.xml"/>
<inductionLoop id="11" lane="R10_1" pos="-100" freq="900" file="out1.xml"/>
<inductionLoop id="12" lane="R9_0" pos="-100" freq="900" file="out1.xml"/>
<inductionLoop id="13" lane="R9_1" pos="-100" freq="900" file="out1.xml"/>
<inductionLoop id="14" lane="R11_0" pos="-100" freq="900" file="out1.xml"/>
<inductionLoop id="15" lane="R13_0" pos="-100" freq="900" file="out1.xml"/>
<inductionLoop id="16" lane="R13_1" pos="-100" freq="900" file="out1.xml"/>
<inductionLoop id="17" lane="R14_0" pos="-100" freq="900" file="out1.xml"/>
<inductionLoop id="18" lane="R14_1" pos="-100" freq="900" file="out1.xml"/>
<inductionLoop id="19" lane="R16_0" pos="-100" freq="900" file="out1.xml"/>
<inductionLoop id="20" lane="R18_0" pos="-100" freq="900" file="out1.xml"/>
<inductionLoop id="21" lane="R18_1" pos="-100" freq="900" file="out1.xml"/>
<inductionLoop id="22" lane="R20_0" pos="-100" freq="900" file="out1.xml"/>
<inductionLoop id="23" lane="R17_0" pos="-100" freq="900" file="out1.xml"/>
<inductionLoop id="24" lane="R17_1" pos="-100" freq="900" file="out1.xml"/>
<inductionLoop id="25" lane="R22_0" pos="-100" freq="900" file="out1.xml"/>
<inductionLoop id="26" lane="R24_0" pos="-100" freq="900" file="out1.xml"/>
<inductionLoop id="27" lane="R24_1" pos="-100" freq="900" file="out1.xml"/>
<inductionLoop id="28" lane="R25_0" pos="-100" freq="900" file="out1.xml"/>
<inductionLoop id="29" lane="R28_0" pos="-100" freq="900" file="out1.xml"/>
<inductionLoop id="30" lane="R30_0" pos="-100" freq="900" file="out1.xml"/>
<inductionLoop id="31" lane="R32_0" pos="-100" freq="900" file="out1.xml"/>
<inductionLoop id="32" lane="R34_0" pos="-100" freq="900" file="out1.xml"/>
<inductionLoop id="33" lane="R33_0" pos="-100" freq="900" file="out1.xml"/>
<inductionLoop id="34" lane="R8_0" pos="-100" freq="900" file="out1.xml"/>
<inductionLoop id="35" lane="R8_1" pos="-100" freq="900" file="out1.xml"/>
<inductionLoop id="36" lane="R37_0" pos="-100" freq="900" file="out1.xml"/>
<inductionLoop id="37" lane="R37_1" pos="-100" freq="900" file="out1.xml"/>
<inductionLoop id="38" lane="R39_0" pos="-100" freq="900" file="out1.xml"/>
<inductionLoop id="39" lane="R38_0" pos="-150" freq="900" file="out1.xml"/>
<inductionLoop id="40" lane="R38_1" pos="-150" freq="900" file="out1.xml"/>
<inductionLoop id="41" lane="R42_0" pos="-200" freq="900" file="out1.xml"/>
<inductionLoop id="42" lane="R44_0" pos="2" freq="900" file="out1.xml"/>
<inductionLoop id="43" lane="R44_1" pos="2" freq="900" file="out1.xml"/>
<inductionLoop id="44" lane="R50_0" pos="2" freq="900" file="out1.xml"/>
<inductionLoop id="45" lane="R31_0" pos="-100" freq="900" file="out1.xml"/>
<inductionLoop id="46" lane="R91_0" pos="-100" freq="900" file="out1.xml"/>
<inductionLoop id="47" lane="R92_0" pos="-100" freq="900" file="out1.xml"/>
<inductionLoop id="48" lane="R94_0" pos="-100" freq="900" file="out1.xml"/>
<inductionLoop id="49" lane="R96_0" pos="-100" freq="900" file="out1.xml"/>
<inductionLoop id="50" lane="R46_0" pos="-150" freq="900" file="out1.xml"/>
<inductionLoop id="51" lane="R46_1" pos="-150" freq="900" file="out1.xml"/>
<inductionLoop id="52" lane="R43_0" pos="2" freq="900" file="out1.xml"/>
<inductionLoop id="53" lane="R43_1" pos="2" freq="900" file="out1.xml"/>
<inductionLoop id="54" lane="R48_0" pos="-200" freq="900" file="out1.xml"/>
<inductionLoop id="55" lane="R21_0" pos="-100" freq="900" file="out1.xml"/>
<inductionLoop id="56" lane="R100_0" pos="2" freq="900" file="out1.xml"/>
<inductionLoop id="57" lane="R101_0" pos="-100" freq="900" file="out1.xml"/>
<inductionLoop id="58" lane="R26_0" pos="-100" freq="900" file="out1.xml"/>
<inductionLoop id="59" lane="R99_0" pos="2" freq="900" file="out1.xml"/>
<inductionLoop id="60" lane="R97_0" pos="-100" freq="900" file="out1.xml"/>
<inductionLoop id="61" lane="R35_0" pos="-100" freq="900" file="out1.xml"/>
<inductionLoop id="62" lane="R104_0" pos="-100" freq="900" file="out1.xml"/>
<inductionLoop id="63" lane="R15_0" pos="-100" freq="900" file="out1.xml"/>
<inductionLoop id="64" lane="R52_0" pos="2" freq="900" file="out1.xml"/>
<inductionLoop id="65" lane="R55_0" pos="2" freq="900" file="out1.xml"/>
<inductionLoop id="66" lane="R84_0" pos="-100" freq="900" file="out1.xml"/>
<inductionLoop id="67" lane="R89_0" pos="-100" freq="900" file="out1.xml"/>
<inductionLoop id="68" lane="R86_0" pos="-100" freq="900" file="out1.xml"/>
<inductionLoop id="69" lane="R41_0" pos="-100" freq="900" file="out1.xml"/>
<inductionLoop id="70" lane="R62_0" pos="-100" freq="900" file="out1.xml"/>
<inductionLoop id="71" lane="R85_0" pos="-100" freq="900" file="out1.xml"/>
<inductionLoop id="72" lane="R87_0" pos="-100" freq="900" file="out1.xml"/>
<inductionLoop id="73" lane="R81_0" pos="-100" freq="900" file="out1.xml"/>
<inductionLoop id="74" lane="R88_0" pos="-100" freq="900" file="out1.xml"/>
<inductionLoop id="75" lane="R90_0" pos="-100" freq="900" file="out1.xml"/>
<inductionLoop id="76" lane="R78_0" pos="2" freq="900" file="out1.xml"/>
<inductionLoop id="77" lane="R80_0" pos="-100" freq="900" file="out1.xml"/>
<inductionLoop id="78" lane="R82_0" pos="-100" freq="900" file="out1.xml"/>
<inductionLoop id="79" lane="R73_0" pos="-100" freq="900" file="out1.xml"/>
<inductionLoop id="80" lane="R76_0" pos="-100" freq="900" file="out1.xml"/>
<inductionLoop id="81" lane="R77_0" pos="2" freq="900" file="out1.xml"/>
<inductionLoop id="82" lane="R68_0" pos="-100" freq="900" file="out1.xml"/>
<inductionLoop id="83" lane="R71_0" pos="-100" freq="900" file="out1.xml"/>
<inductionLoop id="84" lane="R74_0" pos="-100" freq="900" file="out1.xml"/>
<inductionLoop id="85" lane="R65_0" pos="-100" freq="900" file="out1.xml"/>
<inductionLoop id="86" lane="R65_1" pos="-100" freq="900" file="out1.xml"/>
<inductionLoop id="87" lane="R67_0" pos="-100" freq="900" file="out1.xml"/>
<inductionLoop id="88" lane="R70_0" pos="-100" freq="900" file="out1.xml"/>
<inductionLoop id="89" lane="R70_1" pos="-100" freq="900" file="out1.xml"/>
<inductionLoop id="90" lane="R66_0" pos="-100" freq="900" file="out1.xml"/>
<inductionLoop id="91" lane="R66_1" pos="-100" freq="900" file="out1.xml"/>
<inductionLoop id="92" lane="R3_0" pos="-100" freq="900" file="out1.xml"/>
<inductionLoop id="93" lane="R3_1" pos="-100" freq="900" file="out1.xml"/>
<inductionLoop id="94" lane="R64_0" pos="-100" freq="900" file="out1.xml"/>
<inductionLoop id="95" lane="R61_0" pos="-100" freq="900" file="out1.xml"/>
<inductionLoop id="96" lane="R56_0" pos="2" freq="900" file="out1.xml"/>
<inductionLoop id="97" lane="R57_0" pos="-100" freq="900" file="out1.xml"/>
<inductionLoop id="98" lane="R59_0" pos="-100" freq="900" file="out1.xml"/>
<inductionLoop id="99" lane="R51_0" pos="2" freq="900" file="out1.xml"/>
<inductionLoop id="100" lane="R54_0" pos="-100" freq="900" file="out1.xml"/>
<inductionLoop id="101" lane="R47_0" pos="-100" freq="900" file="out1.xml"/>
<inductionLoop id="102" lane="R53_0" pos="-100" freq="900" file="out1.xml"/>
<inductionLoop id="103" lane="R79_0" pos="-100" freq="900" file="out1.xml"/>
<inductionLoop id="104" lane="R83_0" pos="-100" freq="900" file="out1.xml"/>
<inductionLoop id="105" lane="R36_0" pos="-100" freq="900" file="out1.xml"/>
<inductionLoop id="106" lane="R29_0" pos="-100" freq="900" file="out1.xml"/>
<inductionLoop id="107" lane="R49_0" pos="2" freq="900" file="out1.xml"/>

</additional>
