<?xml version="1.0" encoding="UTF-8"?>

<!-- generated on Sat Jul  6 15:26:27 2019 by Eclipse SUMO duarouter Version 1.2.0
<configuration xmlns:xsi="http://www.w3.org/2001/XMLSchema-instance" xsi:noNamespaceSchemaLocation="http://sumo.dlr.de/xsd/duarouterConfiguration.xsd">

    <input>
        <net-file value="gwalior1.net.xml"/>
        <route-files value="trips.trips.xml"/>
    </input>

    <output>
        <output-file value="gwalior.rou.xml"/>
        <alternatives-output value="gwalior.rou.alt.xml"/>
    </output>

    <time>
        <begin value="0"/>
        <end value="200.0"/>
    </time>

    <report>
        <no-warnings value="true"/>
        <ignore-errors value="true"/>
        <no-step-log value="true"/>
    </report>

</configuration>
-->

<routes xmlns:xsi="http://www.w3.org/2001/XMLSchema-instance" xsi:noNamespaceSchemaLocation="http://sumo.dlr.de/xsd/routes_file.xsd">

<vType id="car" accel="0.8" decel="4.5" sigma="0.5" length="5" minGap="2.5" maxSpeed="22.22"  color="255,255,255" guiShape="passenger"/>
<vType id="ambu" accel="0.8" decel="4.5" sigma="0.5" length="7" minGap="2.5" maxSpeed="27.78" color="red" guiShape="emergency"/>
<vType id="bus" accel="0.8" decel="4.5" sigma="0.5" length="10" minGap="2.5" maxSpeed="16.67" color="122,255,122" guiShape="bus"/>
<vType id="fire" accel="0.8" decel="4.5" sigma="0.5" length="10" minGap="3" maxSpeed="16.67" color="red" guiShape="firebrigade"/>
<vType id="motorcycle" accel="0.8" decel="4.5" sigma="0.5" length="2" minGap="1" maxSpeed="22.22" color="0,0,255" guiShape="motorcycle"/>
<vType id="police" accel="0.8" decel="4.5" sigma="0.5" length="7" minGap="3" maxSpeed="22.22" color="169,169,169" guiShape="police"/>
<vType id="truck" accel="0.8" decel="3.5" sigma="0.5" length="11" minGap="3" maxSpeed="11.11" color="red" guiShape="truck"/>
 
    <vehicle id="1"   type="bus" depart="0.00">
        <route edges="451690840#5 -451690840#5 547665373#0 547665377#0 547665379#0 -547665371#1 -547665371#0 -547665369#0 171185159#7 171185159#8 171185159#9 171185159#10 171185159#11 171185157#0 171185157#1"/>
    </vehicle>
    <vehicle id="2"  type="truck"   depart="0.00">
        <route edges="-171185159#9 -171185159#8 -171185159#7 -171185159#6 -171185159#5 R76 R78 R79 R84 R56 R58 -384145606#0 -384145608#1 -384145608#0 -384145607 -99621717#3 -99621717#2 -99621717#1 -99621717#0 379711248#1 379711248#2 379711248#3 379711248#4 508777085#0 521511808#0 521511817#0 521511817#1 -521511817#1"/>
    </vehicle>
    <vehicle id="3"   type="ambu" depart="0.00">
        <route edges="-547667474 -171185159#9 -171185159#8 -171185159#7 -171185159#6 -171185159#5 R76 R74 R67 R66 R4 R5"/>
    </vehicle>
    <vehicle id="4"  type="motorcycle"  depart="0.00">
        <route edges="451690842 -451690840#3 R70 R66 R62 R86 R42 R43 R50 R32 R35 R36"/>
    </vehicle>
    <vehicle id="5"   type="motorcycle" depart="1.00">
        <route edges="R13 R10 R6 R3 R4"/>
    </vehicle>
    <vehicle id="6"   type="fire" depart="1.00">
        <route edges="451690842 -451690840#3 R70 R68 R73 R78 R79 R84 R56 R58 -384145606#0 -384145608#1 -384145608#0 -384145607 -99621717#3 99621717#3"/>
    </vehicle>
    <vehicle id="7"   type="bus" depart="1.00">
        <route edges="R95 -133305534#0 379711242#2 379711248#4 379711248#5 379711248#0 99621717#0 99621717#1 99621717#2 99621717#3 384145607 384145608#0 384145608#1 384145606#0 R57 R55 R83 R80 R77 R74 R67"/>
    </vehicle>
    <vehicle id="9" type="car"   depart="1.00">
        <route edges="R3 R4 R5"/>
    </vehicle>
    <vehicle id="10" depart="2.00">
        <route edges="-521511788 -521511803#2 -521511786 521511821#12 -508777391#1 -508777391#0 -508777085#3 -508777085#2 -508777085#1 521511808#0"/>
    </vehicle>
    <vehicle id="11" depart="2.00">
        <route edges="R6 R3 R65"/>
    </vehicle>
    <vehicle id="12"  type="motorcycle"  depart="2.00">
        <route edges="R67 R66 R62 R86 R42 R37 R7"/>
    </vehicle>
    <vehicle id="13" depart="2.00">
        <route edges="R101 R99 R25 R30 R33 R38"/>
    </vehicle>
    <vehicle id="14"  type="motorcycle"  depart="2.00">
        <route edges="R62 R86 R42 R43 R50 R32 R29 R26 R100 R22"/>
    </vehicle>
    <vehicle id="15" depart="3.00">
        <route edges="547665371#1 547665379#1 R76 R78 R81 R89 R42 R37 R7 R6"/>
    </vehicle>
    <vehicle id="17" depart="3.00">
        <route edges="R64 R65 R69 451690840#3 451690840#4 547665373#0 547665377#0 547665379#0 547665379#1"/>
    </vehicle>
    <vehicle id="18" type="car"   depart="3.00">
        <route edges="-171185157#1 -171185157#0 -171185159#11 -171185159#10 -171185159#9 547665356#0 547665356#1 -547665358#0 547665357#1"/>
    </vehicle>
    <vehicle id="19"   type="bus" depart="3.00">
        <route edges="-521511803#8 -521511803#7 -521511781 521511821#7 521511821#8 521511821#9 521511821#10 521511821#11 521511821#12 -508777391#1 -508777391#0 -508777085#3 -508777085#2 -508777085#1 -508777085#0 379711248#5 379711248#0 379711248#1 R46 R44 R37 R40"/>
    </vehicle>
    <vehicle id="20"  type="truck"   depart="4.00">
        <route edges="521511821#0 521511821#1 521511821#2 521511821#3 521511821#4 521511821#5 521511821#6 521511821#7 521511821#8 521511821#9 521511821#10 521511821#11 521511821#12 -508777391#1 -508777391#0 -508777085#3 -508777085#2 -508777085#1 -508777085#0 379711248#5 379711248#0 379711248#1 R46 R44 R37 R7 R6 R2"/>
    </vehicle>
    <vehicle id="21" depart="4.00">
        <route edges="R28 R30 R31 R49 R45 379711248#2 379711248#3 379711248#4 508777085#0 -508777085#0"/>
    </vehicle>
    <vehicle id="22"  type="motorcycle"  depart="4.00">
        <route edges="171185159#8 -171185159#8 -171185159#7 -171185159#6 -171185159#5 R76 R74 R67 R69 451690840#3 -451690842"/>
    </vehicle>
    <vehicle id="23" depart="4.00">
        <route edges="R34 R31 R49 R45 379711248#2 379711248#3 379711248#4 508777085#0 508777085#1 508777085#2 508777085#3 508777391#0 508777391#1 508777391#2 521511756#0 521511756#1 521511756#2 521511756#3 -521511740"/>
    </vehicle>
    <vehicle id="24"  type="motorcycle"  depart="4.00">
        <route edges="R68 R73 R78 R79 R84 R56 R58 -384145606#0 -99621794#1 -99621794#0"/>
    </vehicle>
    <vehicle id="25" depart="5.00">
        <route edges="R47 R48 R44 R37 R7 R6"/>
    </vehicle>
    <vehicle id="26" depart="5.00">
        <route edges="R20 R15 R36 R31 R49 R45 379711248#2 379711248#3 379711248#4 508777085#0 508777085#1 508777085#2 508777085#3 508777391#0 508777391#1 508777391#2 508777391#3"/>
    </vehicle>
    <vehicle id="27" depart="5.00">
        <route edges="547665356#1 -547665356#1 -547665356#0 -171185159#8 -171185159#7 -171185159#6 -171185159#5 R76 R78 R81 R89 R42 R43 R50 R92 R91"/>
    </vehicle>
    <vehicle id="28"  type="fire"  depart="5.00">
        <route edges="-521511772 521511772 379711242#1 379711242#2 379711248#4 379711248#5 379711248#0 99621717#0 99621717#1 99621717#2 -99621717#2"/>
    </vehicle>
    <vehicle id="29"  type="bus"  depart="5.00">
        <route edges="-171185159#13 -171185159#12 -171185159#11 -171185159#10 -171185159#9 -171185159#8 -171185159#7 -171185159#6 -171185159#5 R76 R78 R79 R84 R56 R58 -384145606#0 -384145608#1 -384145608#0 -384145607 -99621717#3 99621717#3"/>
    </vehicle>
    <vehicle id="30" type="car"   depart="6.00">
        <route edges="547665357#0 547665358#0 -547665356#1 -547665356#0 -171185159#8 -171185159#7 547665369#0 547665369#1 547665371#1 -547665371#1"/>
    </vehicle>
    <vehicle id="31" depart="6.00">
        <route edges="R86 R42 R37 R7 R9 R12 547746530#1 547746530#2 547746530#3 547746549"/>
    </vehicle>
    <vehicle id="32" depart="6.00">
        <route edges="-451690840#6 -451690840#5 -451690840#4 -451690840#3 R70 R66 R62 R86 R42 R41"/>
    </vehicle>
    <vehicle id="33" depart="6.00">
        <route edges="R90 R82 R77 R75 171185159#5 171185159#6 171185159#7 171185159#8 171185159#9"/>
    </vehicle>
    <vehicle id="34"   type="motorcycle" depart="6.00">
        <route edges="R1 R3 R65 R68 R67"/>
    </vehicle>
    <vehicle id="35"  type="truck"   depart="7.00">
        <route edges="521511723 -521511808#2 -521511808#1 -521511808#0 -508777085#0 379711248#5 379711248#0 99621717#0 99621717#1 99621717#2 99621717#3 384145607 384145608#0 384145608#1 384145606#0 R57 R55 R83 R80 R77 R75 171185159#5 171185159#6 171185159#7 171185159#8 171185159#9 171185159#10 171185159#11 171185159#12 171185159#13"/>
    </vehicle>
    <vehicle id="36" depart="7.00">
        <route edges="521511808#0 521511808#1 521511808#2 521511818#1 -521511818#1"/>
    </vehicle>
    <vehicle id="37" depart="7.00">
        <route edges="R1 R5 R8 R38 R43 R45 379711248#2 379711248#3 379711248#4 508777085#0 508777085#1 508777085#2 508777085#3 508777391#0 508777391#1 508777391#2 521511756#0 521511756#1 521511756#2 -521511756#2"/>
    </vehicle>
    <vehicle id="38"  type="car"  depart="7.00">
        <route edges="547746536#0 547746539#5 -547746530#1 R11 R10 R8 R38 R43 R47"/>
    </vehicle>
    <vehicle id="40" depart="8.00">
        <route edges="-547746534#1 -547746530#4 -547746530#3 -547746530#2 -547746530#1 R11 R10 R6 R3 R65 R66"/>
    </vehicle>
    <vehicle id="41"   type="bus" depart="8.00">
        <route edges="R1 R3 R65 R68 R73 R75 171185159#5 171185159#6 171185159#7 547665359#0 547665359#1 547665359#2"/>
    </vehicle>
    <vehicle id="43" type="car"   depart="8.00">
        <route edges="R3 R65 R68 R67"/>
    </vehicle>
    <vehicle id="44"  type="car"  depart="8.00">
        <route edges="R6 R5 R8 R38 R43 R45 379711248#2 379711248#3 379711248#4 508777085#0 521511808#0 521511808#1 521511808#2 -521511723"/>
    </vehicle>
    <vehicle id="45" type="car"   depart="9.00">
        <route edges="-547963935 -547963936#0 R70 R66 R62 R86 R42 R43 R50 R32 R29 R26 R98"/>
    </vehicle>
    <vehicle id="47"  type="motorcycle"  depart="9.00">
        <route edges="-547746530#1 R11 R14 R13"/>
    </vehicle>
    <vehicle id="48" type="car"   depart="9.00">
        <route edges="R13 R10 R6 R2"/>
    </vehicle>
    <vehicle id="49"  type="truck"   depart="9.00">
        <route edges="R104 R36 R31 R49 R45 379711248#2 379711248#3 379711248#4 379711248#5 379711248#0 99621717#0 99621717#1 99621717#2 99621717#3 384145607 384145608#0 384145608#1 -99621794#1"/>
    </vehicle>
    <vehicle id="50" depart="10.00">
        <route edges="521511723 -521511808#2 -521511808#1 -521511808#0 -508777085#0 379711248#5 379711248#0 379711248#1 R46"/>
    </vehicle>
    <vehicle id="51"  type="fire"  depart="10.00">
        <route edges="-451690840#6 -451690840#5 547665373#0 547665377#0 547665379#0 -547665371#1 -547665371#0 -547665369#0 171185159#7 547665359#0"/>
    </vehicle>
    <vehicle id="52" depart="10.00">
        <route edges="547665360#1 -547665360#1 -547665360#0 -547665356#0 171185159#9 547667474"/>
    </vehicle>
    <vehicle id="53" depart="10.00">
        <route edges="521511811#1 521511811#2 -521511817#0 -521511808#0 -508777085#0 379711248#5 379711248#0 379711248#1 R46 R44 R37 R7 R6 R2"/>
    </vehicle>
    <vehicle id="54"  type="motorcycle"  depart="10.00">
        <route edges="547746536#0 547746539#5 -547746530#1 R11 R10 R6 R3"/>
    </vehicle>
    <vehicle id="55"  type="truck"   depart="11.00">
        <route edges="521511743#2 521511740 -521511756#3 -521511756#2 -521511756#1 -521511756#0 -508777391#2 -508777391#1 -508777391#0 -508777085#3 -508777085#2 -508777085#1 -508777085#0 379711248#5 379711248#0 99621717#0 99621717#1 99621717#2 99621717#3 384145607 384145608#0 384145608#1 384145606#0 R57 R55 R83 R80 R77 R75 171185159#5 171185159#6 171185159#7 171185159#8 171185159#9 171185159#10 171185159#11 171185157#0"/>
    </vehicle>
    <vehicle id="56" depart="11.00">
        <route edges="R48 R45 379711248#2 379711248#3 379711248#4 379711248#5 379711248#0 99621717#0 99621717#1 99621717#2 99621717#3 384145607 384145608#0 384145608#1 -99621794#1 -99621794#0"/>
    </vehicle>
    <vehicle id="57"  type="truck"   depart="11.00">
        <route edges="R26 R25 R30 R31 R49 R45 379711248#2 379711248#3 379711248#4 508777085#0 508777085#1 508777085#2 508777085#3 508777391#0 508777391#1 -521511821#12 -521511821#11 -521511821#10 -521511821#9 -521511821#8 -521511821#7 -521511821#6 -521511821#5 -521511821#4 -521511813#0 -521511815#0"/>
    </vehicle>
    <vehicle id="58"  type="police"  depart="11.00">
        <route edges="R61 R62 R88 R89"/>
    </vehicle>
    <vehicle id="59" depart="11.00">
        <route edges="99621794#1 384145606#0 R57 R55 R83 R80 R77 R74 R67 R69 451690840#3"/>
    </vehicle>
    <vehicle id="60" depart="12.00">
        <route edges="-384145608#1 -384145608#0 -384145607 -99621717#3"/>
    </vehicle>
    <vehicle id="61"   type="bus" depart="12.00">
        <route edges="547667474 -547667474 -171185159#9 -171185159#8 -171185159#7 -171185159#6 -171185159#5 R76 R78 R81 R89 R42 R43 R50 R32 R35 R16 R17"/>
    </vehicle>
    <vehicle id="62"  type="motorcycle"  depart="12.00">
        <route edges="-521511723 521511772 379711242#1 379711242#2 379711248#4 379711248#5 379711248#0 379711248#1 R46 R50 R92"/>
    </vehicle>
    <vehicle id="63" type="car"   depart="12.00">
        <route edges="99621794#1 384145606#0 R57 R55 R83"/>
    </vehicle>
    <vehicle id="64" type="car"   depart="12.00">
        <route edges="R4 R5 R8 R34 R29 R27"/>
    </vehicle>
    <vehicle id="65" depart="13.00">
        <route edges="R65 R69 451690840#3 451690840#4 547665373#0 547665377#0 547665379#0 547665379#1"/>
    </vehicle>
    <vehicle id="66" depart="13.00">
        <route edges="R64 R63"/>
    </vehicle>
    <vehicle id="67"  type="motorcycle"  depart="13.00">
        <route edges="R25 R30 R31 R49 R45 379711248#2 379711248#3 379711248#4 508777085#0 521511808#0 521511808#1 521511808#2 -521511818#0 521511723"/>
    </vehicle>
    <vehicle id="69"  type="fire"  depart="13.00">
        <route edges="-171185159#9 -171185159#8 -171185159#7 -171185159#6 -171185159#5 R76 R78 R79 R84 R51 R48"/>
    </vehicle>
    <vehicle id="70" depart="14.00">
        <route edges="-521511813#0 521511813#0 521511821#4 521511821#5 521511821#6 521511821#7 521511821#8 521511821#9 521511821#10 521511821#11 521511821#12 -508777391#1 -508777391#0 -508777085#3 -508777085#2 -508777085#1 -508777085#0 379711248#5 379711248#0 379711248#1 R46 R50 R32 R35 R16 R17 R21"/>
    </vehicle>
    <vehicle id="71"  type="truck"   depart="14.00">
        <route edges="451690842 -451690840#3 R70 R68 R73 R78 R79 R84 R56 R58 -384145606#0 -384145608#1 -384145608#0 -384145607 -99621717#3 -99621717#2 -99621717#1 -99621717#0 379711248#1 379711248#2 379711248#3 379711248#4 508777085#0 508777085#1 508777085#2 508777085#3 508777391#0 508777391#1 -521511821#12 -521511821#11 -521511821#10 -521511821#9 -521511821#8 -521511821#7 -521511821#6 -521511821#5 -521511821#4 -521511821#3 -521511821#2 -521511821#1 -521511821#0"/>
    </vehicle>
    <vehicle id="72"   type="bus" depart="14.00">
        <route edges="547746539#2 R11 R10 R8 R38 R41 R42"/>
    </vehicle>
    <vehicle id="73"   type="motorcycle" depart="14.00">
        <route edges="R21 R22 R18 R13 R10 R6 R2"/>
    </vehicle>
    <vehicle id="74" depart="14.00">
        <route edges="-171185157#1 -171185157#0 -171185159#11 -171185159#10 -171185159#9 -171185159#8 -171185159#7 -171185159#6 -171185159#5 R76 R74 R67 R69 451690840#3 -451690842"/>
    </vehicle>
    <vehicle id="75"   type="truck"  depart="15.00">
        <route edges="-521511799#1 -521511799#0 521511821#2 521511821#3 521511821#4 521511821#5 521511821#6 521511821#7 521511821#8 521511821#9 521511821#10 521511821#11 521511821#12 -508777391#1 -508777391#0 -508777085#3 -508777085#2 -508777085#1 -508777085#0 379711248#5 379711248#0 99621717#0 99621717#1 99621717#2 99621717#3 384145607 384145608#0 384145608#1 -99621794#1 -99621794#0"/>
    </vehicle>
    <vehicle id="76"  type="car"  depart="15.00">
        <route edges="451690842 -451690840#3 547963936#0 R71"/>
    </vehicle>
    <vehicle id="77"  type="ambu"  depart="15.00">
        <route edges="-171185159#13 -171185159#12 -171185159#11 -171185159#10 547667474"/>
    </vehicle>
    <vehicle id="78" depart="15.00">
        <route edges="99621794#0 99621794#1 -384145608#1 -384145608#0 -384145607 -99621717#3 -99621717#2 -99621717#1 -99621717#0 379711248#1 R46 R44 R37 R40"/>
    </vehicle>
    <vehicle id="79" depart="15.00">
        <route edges="-171185159#8 -171185159#7 -171185159#6 -171185159#5 R76 R78 R79 R84 R56 R58 -384145606#0 -384145608#1 -384145608#0 -384145607 -99621717#3 -99621717#2 -99621717#1 -99621717#0 379711248#1 379711248#2 379711248#3 379711248#4 508777085#0 508777085#1 508777085#2 508777085#3 508777391#0 508777391#1 -521511821#12"/>
    </vehicle>
    <vehicle id="80" type="car"   depart="16.00">
        <route edges="R79 R84 R51 R48 R50 R32 R35 R16 R17 R21"/>
    </vehicle>
    <vehicle id="81"  type="motorcycle"  depart="16.00">
        <route edges="R6 R5 R8 R40"/>
    </vehicle>
    <vehicle id="82"  type="truck"   depart="16.00">
        <route edges="R33 R38 R43 R45 379711248#2 379711248#3 379711248#4 508777085#0 508777085#1 508777085#2 508777085#3 508777391#0 508777391#1 -521511821#12 -521511821#11 -521511821#10 -521511821#9 -521511821#8 -521511821#7 -521511821#6 -521511821#5 -521511821#4 -521511821#3 -521511821#2 -521511821#1 -521511821#0"/>
    </vehicle>
    <vehicle id="83"  type="bus"  depart="16.00">
        <route edges="R87 R86 R42 R43 R45 379711248#2 379711248#3 379711248#4 508777085#0 508777085#1 508777085#2 508777085#3 508777391#0 508777391#1 -521511821#12 -521511821#11 -521511821#10 -521511821#9 -521511821#8 -521511821#7 -521511821#6 -521511803#8 -521511803#7 -521511781"/>
    </vehicle>
    <vehicle id="84" depart="16.00">
        <route edges="521539874#0 -521539874#0 99621794#1 384145606#0 R57 R55 R83 R80 R77 R74 R67 R69 451690840#3 -451690842"/>
    </vehicle>
    <vehicle id="85" depart="17.00">
        <route edges="171185157#0 -171185157#0 -171185159#11 -171185159#10 -171185159#9 -171185159#8 -171185159#7 -171185159#6 -171185159#5 R76 R78 R79 R84 R56 R58 -384145606#0 -384145608#1 -384145608#0 -384145607 -99621717#3 -99621717#2 -99621717#1 -99621717#0 379711248#1 379711248#2 379711244#0 379711244#1"/>
    </vehicle>
    <vehicle id="87" depart="17.00">
        <route edges="R72 -547963936#0 R70 R66 R62 R86 R42 R43 R50 R32 R35 R36"/>
    </vehicle>
    <vehicle id="88"   type="bus" depart="17.00">
        <route edges="-508777391#3 -508777391#2 -508777391#1 -508777391#0 -508777085#3 -508777085#2 -508777085#1 -508777085#0 379711248#5 379711248#0 99621717#0 99621717#1 99621717#2 99621717#3 384145607 384145608#0 384145608#1 384145606#0 R57 R55 R83 R80 R77 R74 R67 R69 547963936#0 R71"/>
    </vehicle>
    <vehicle id="89" depart="17.00">
        <route edges="-171185157#0 -171185159#11 -171185159#10 -171185159#9 -171185159#8 -171185159#7 -171185159#6 -171185159#5 R76 R78 R81 R89 R42 R43 R50 R32 R29 R26 R100 R99"/>
    </vehicle>
    <vehicle id="90"  type="motorcycle"  depart="18.00">
        <route edges="-547665371#1 547665371#1 547665379#1"/>
    </vehicle>
    <vehicle id="91" depart="18.00">
        <route edges="-171185159#13 -171185159#12 -171185159#11 -171185159#10 -171185159#9 -171185159#8 -171185159#7 -171185159#6 -171185159#5 R76 R78 R81 R89 R42 R43 R50 R32 R35 R16 R17"/>
    </vehicle>
    <vehicle id="92" type="car"   depart="18.00">
        <route edges="R62 R86 R42 R43 R45 379711248#2 379711248#3 379711248#4 508777085#0 521511808#0 521511808#1 521511808#2 -521511818#0 521511723"/>
    </vehicle>
    <vehicle id="93"   type="bus" depart="18.00">
        <route edges="-451690840#6 -451690840#5 -451690840#4 -451690840#3 R70 R68 R73 R78 R79 R84 R56 R58 -384145606#0 -384145608#1 521707480#0 521707479#0 -521707478 521707478"/>
    </vehicle>
    <vehicle id="94"  type="fire"  depart="18.00">
        <route edges="-508777391#3 -508777391#2 -508777391#1 -508777391#0 -508777085#3 -508777085#2 -508777085#1 -508777085#0 379711248#5 379711248#0 99621717#0 99621717#1 99621717#2 99621717#3 384145607 384145608#0 384145608#1 384145606#0 R57 R55 R83 R80 R77 R75 -547665379#1 -547665371#1"/>
    </vehicle>
    <vehicle id="95"   type="motorcycle" depart="19.00">
        <route edges="R61 R4 R5 R6"/>
    </vehicle>
    <vehicle id="96"  type="ambu"  depart="19.00">
        <route edges="R62 R88 R82 R79 R84 R56 R58 -384145606#0 -99621794#1"/>
    </vehicle>
    <vehicle id="97"   type="motorcycle" depart="19.00">
        <route edges="R6 R5 R9 R12 547746530#1 547746539#6 547746539#7 -547746545"/>
    </vehicle>
    <vehicle id="98" depart="19.00">
        <route edges="R64 R62 R86 R90"/>
    </vehicle>
    <vehicle id="99" depart="19.00">
        <route edges="R3 R65 R68 R72"/>
    </vehicle>
    <vehicle id="101"  type="bus"  depart="20.00">
        <route edges="R87 R88 R82 R77 R75 171185159#5 171185159#6 171185159#7 171185159#8 171185159#9 171185159#10 547665355"/>
    </vehicle>
    <vehicle id="102" depart="20.00">
        <route edges="R6 R5 R8 R34"/>
    </vehicle>
    <vehicle id="103" depart="20.00">
        <route edges="-521511733#0 521511733#0 521511733#1 -508777085#1 -508777085#0 379711248#5 379711248#0 379711248#1 R46 R44 R37 R7 R6 R2"/>
    </vehicle>
    <vehicle id="104"  type="motorcycle"  depart="20.00">
        <route edges="R31 R49 R44 R37 R7 R6"/>
    </vehicle>
    <vehicle id="105"  type="car"  depart="21.00">
        <route edges="R71 R73 R78 R81 R89 R42 R37 R7 R9 R10"/>
    </vehicle>
    <vehicle id="106" depart="21.00">
        <route edges="R39 R38 R43 R45 379711248#2 379711248#3 379711248#4 379711248#5 379711248#0 99621717#0 99621717#1 99621717#2 99621717#3"/>
    </vehicle>
    <vehicle id="107"  type="car"  depart="21.00">
        <route edges="95658123#0 95658115"/>
    </vehicle>
    <vehicle id="108"  type="motorcycle"  depart="21.00">
        <route edges="R9 R10 R8 R38 R41 R90 R82 R79"/>
    </vehicle>
    <vehicle id="109"  type="car"  depart="21.00">
        <route edges="-547746539#4 547746539#4"/>
    </vehicle>
    <vehicle id="110" depart="22.00">
        <route edges="547746530#3 -547746530#3 -547746530#2 -547746530#1 R11 R10 R6"/>
    </vehicle>
    <vehicle id="111" type="car"   depart="22.00">
        <route edges="R1 R5 R9 R14 R17 R21 R22"/>
    </vehicle>
    <vehicle id="112"  type="car"  depart="22.00">
        <route edges="R5 R8"/>
    </vehicle>
    <vehicle id="113"   type="fire" depart="22.00">
        <route edges="R4 R3 R65 R68 R73 R75 171185159#5 171185159#6 171185159#7 171185159#8 171185159#9 171185159#10 171185159#11 171185159#12 171185159#13"/>
    </vehicle>
    <vehicle id="115"  type="motorcycle"  depart="23.00">
        <route edges="R68 R67 R69 451690840#3 451690840#4 451690840#5 -451690840#5"/>
    </vehicle>
    <vehicle id="117" depart="23.00">
        <route edges="99621794#0 99621794#1 -384145608#1 -384145608#0 -384145607 -99621717#3 -99621717#2 -99621717#1 -99621717#0 379711248#1 R46 R44 R37 R7 R6"/>
    </vehicle>
    <vehicle id="118"  type="truck"   depart="23.00">
        <route edges="R84 R56 R58 -384145606#0 -384145608#1 -384145608#0 -384145607 -99621717#3 -99621717#2 -99621717#1 -99621717#0 379711248#1 379711248#2 379711248#3 379711248#4 508777085#0 521511808#0 521511817#0 521511817#1 521511817#2 521511817#3 521511815#0 521511813#0"/>
    </vehicle>
    <vehicle id="119"  type="bus"  depart="23.00">
        <route edges="99621794#1 384145606#0 R57 R55 R83 R80 R77 R75 171185159#5 171185159#6 171185159#7 547665359#0 547665359#1 547665359#2 -547665360#2"/>
    </vehicle>
    <vehicle id="120" depart="24.00">
        <route edges="R7 R8 R38 R41 R90 R82 R77 R75 171185159#5"/>
    </vehicle>
    <vehicle id="121" depart="24.00">
        <route edges="R95 -133305534#0 379711242#2 379711248#4 379711248#5 379711248#0 379711248#1 R46 R44 R41 R42"/>
    </vehicle>
    <vehicle id="122"   type="ambu" depart="24.00">
        <route edges="521511799#0 -521511799#0 521511821#2 521511821#3 521511821#4 521511821#5 521511821#6 521511821#7 521511821#8 521511821#9 521511821#10 521511821#11 521511821#12 -508777391#1 -508777391#0 -508777085#3 -508777085#2 -508777085#1 -508777085#0 379711248#5 379711248#0 99621717#0 99621717#1 99621717#2 99621717#3 384145607 384145608#0 384145608#1 384145606#0 R57 R58"/>
    </vehicle>
    <vehicle id="123"  type="truck"   depart="24.00">
        <route edges="-521511791 -521511782 521511821#8 521511821#9 521511821#10 521511821#11 521511821#12 -508777391#1 -508777391#0 -508777085#3 -508777085#2 -508777085#1 -508777085#0 379711248#5 379711248#0 99621717#0 99621717#1 99621717#2 99621717#3 384145607 384145608#0 384145608#1 384145606#0 R57 R55 R83 R80 R77 R74"/>
    </vehicle>
    <vehicle id="124" type="car"   depart="24.00">
        <route edges="-99621794#1 99621794#1 -384145608#1 -384145608#0 -384145607 -99621717#3 -99621717#2 -99621717#1 -99621717#0 379711248#1 R46 R44 R37 R7 R6 R3"/>
    </vehicle>
    <vehicle id="125"   type="motorcycle" depart="25.00">
        <route edges="-547665371#1 547665371#1 -547665379#0 -547665377#0 547665373#1 -547665375#0 -451690840#3 R70 R66 R4 R2"/>
    </vehicle>
    <vehicle id="126"  type="fire"  depart="25.00">
        <route edges="R58 -384145606#0 -384145608#1 -384145608#0 -384145607 -99621717#3 -99621717#2 -99621717#1 -99621717#0 379711248#1 379711248#2 379711248#3 379711248#4 508777085#0 508777085#1 508777085#2"/>
    </vehicle>
    <vehicle id="127" depart="25.00">
        <route edges="R4 R5 R9 R14 R15 R103 -133305551#1 R97"/>
    </vehicle>
    <vehicle id="128"  type="truck"   depart="25.00">
        <route edges="-451690840#5 -451690840#4 -451690840#3 R70 R68 R73 R78 R79 R84 R56 R58 -384145606#0 -384145608#1 -384145608#0 -384145607 -99621717#3 -99621717#2 -99621717#1 -99621717#0 379711248#1 379711248#2 379711248#3 379711248#4 508777085#0 521511808#0 521511817#0 521511817#1 521511817#2 521511817#3 521511815#0 521511815#1"/>
    </vehicle>
    <vehicle id="129"   type="bus" depart="25.00">
        <route edges="-547665350 -171185159#12 -171185159#11 -171185159#10 -171185159#9 -171185159#8 -171185159#7 -171185159#6 -171185159#5 R76 R78 R79 R84 R56 R58 -384145606#0 -384145608#1 -384145608#0 -384145607 -99621717#3 -99621717#2 -99621717#1 -99621717#0 379711248#1 379711248#2 379711244#0 379711244#1"/>
    </vehicle>
    <vehicle id="130" type="car"   depart="26.00">
        <route edges="547746539#7 -547746545 547746539#1 547746539#2 R11 R10 R6 R3"/>
    </vehicle>
    <vehicle id="131"  type="car"  depart="26.00">
        <route edges="R8 R7 R9 R14 R17 R21"/>
    </vehicle>
    <vehicle id="132" depart="26.00">
        <route edges="-508777085#2 -508777085#1 -508777085#0 379711248#5 379711248#0 99621717#0 99621717#1 99621717#2 99621717#3 384145607 384145608#0 521707480#0 521707479#0"/>
    </vehicle>
    <vehicle id="133"  type="motorcycle"  depart="26.00">
        <route edges="R9 R10 R8 R38 R43 R45 379711248#2 379711248#3 379711248#4 508777085#0 521511808#0 521511808#1 521511808#2 -521511818#0 521511772"/>
    </vehicle>
    <vehicle id="134"   type="bus" depart="26.00">
        <route edges="521511808#0 -521511808#0 -508777085#0 379711248#5 379711248#0 99621717#0 99621717#1 99621717#2 99621717#3 384145607 384145608#0 384145608#1 384145606#0 R57 R55 R83 R80 R77 R74 R67 R69 451690840#3"/>
    </vehicle>
    <vehicle id="135"  type="motorcycle"  depart="27.00">
        <route edges="R86 R42 R43 R50 R92 R95"/>
    </vehicle>
    <vehicle id="137" depart="27.00">
        <route edges="R3 R62 R88"/>
    </vehicle>
    <vehicle id="138"  type="fire"  depart="27.00">
        <route edges="R5 R8 R38 R41 R90 R82 R77 R75 171185159#5 171185159#6 171185159#7 171185159#8 171185159#9 547667474 -547667475#0 -547667476#1 -547667476#0"/>
    </vehicle>
    <vehicle id="139"  type="car"  depart="27.00">
        <route edges="547746539#3 -547746539#3 R11 R14"/>
    </vehicle>
    <vehicle id="140"  type="motorcycle"  depart="28.00">
        <route edges="R6 R5 R8 R38 R41 R90"/>
    </vehicle>
    <vehicle id="141"  type="motorcycle"  depart="28.00">
        <route edges="R4 R5 R8 R38 R43 R45"/>
    </vehicle>
    <vehicle id="142" depart="28.00">
        <route edges="521511756#1 -521511756#1 -521511756#0 -508777391#2 -508777391#1 -508777391#0 -508777085#3 -508777085#2 -508777085#1 -508777085#0 379711248#5 379711248#0 99621717#0 99621717#1 99621717#2 99621717#3 384145607 384145608#0 384145608#1 384145606#0 R57 R55 R83 R80 R77 R74"/>
    </vehicle>
    <vehicle id="143" depart="28.00">
        <route edges="99621794#1 -384145608#1 -384145608#0 -384145607 -99621717#3 -99621717#2 -99621717#1 -99621717#0 379711248#1 R46 R50 R32 R35 R16 R17 R23"/>
    </vehicle>
    <vehicle id="144"  type="truck"   depart="28.00">
        <route edges="R35 R36 R31 R49 R45 379711248#2 379711248#3 379711248#4 508777085#0 508777085#1 508777085#2 508777085#3 508777391#0 508777391#1 -521511821#12 -521511821#11 -521511821#10 -521511821#9 -521511821#8 521511782"/>
    </vehicle>
    <vehicle id="145"  type="motorcycle"  depart="29.00">
        <route edges="R4 R3 R62 R88 R89"/>
    </vehicle>
    <vehicle id="146" depart="29.00">
        <route edges="-521511723 521511772 379711242#1 379711242#2 379711248#4 379711248#5 379711248#0 379711248#1 R46 R44 R37 R7 R6 R2"/>
    </vehicle>
    <vehicle id="147" depart="29.00">
        <route edges="-547665358#1 -547665356#1 -547665356#0 -171185159#8 -171185159#7 -171185159#6 -171185159#5 R76 R78 R81 R89 R42 R43 R50 R32 R29 R26"/>
    </vehicle>
    <vehicle id="148" depart="29.00">
        <route edges="R35 R36 R31 R92 R93"/>
    </vehicle>
    <vehicle id="149" depart="29.00">
        <route edges="-547746536#0 547746534#0 -547746530#4 -547746530#3 -547746530#2 -547746530#1 R11 R10 R8 R38 R43 R45 379711248#2 379711248#3 379711248#4 379711248#5 379711248#0 99621717#0 99621717#1 99621717#2 99621717#3 384145607 384145608#0 384145608#1 -99621794#1 521539874#0"/>
    </vehicle>
    <vehicle id="150"  type="car"  depart="30.00">