<?xml version="1.0" encoding="UTF-8"?>

<!-- generated on Sat Jun  8 18:31:23 2019 by Eclipse SUMO duarouter Version 1.2.0
<configuration xmlns:xsi="http://www.w3.org/2001/XMLSchema-instance" xsi:noNamespaceSchemaLocation="http://sumo.dlr.de/xsd/duarouterConfiguration.xsd">

    <input>
        <net-file value="gwalior1.net.xml"/>
        <route-files value="trips.trips.xml"/>
    </input>

    <output>
        <output-file value="test.rou.xml"/>
        <alternatives-output value="test.rou.alt.xml"/>
    </output>

    <time>
        <begin value="0"/>
        <end value="200.0"/>
    </time>

    <report>
        <no-warnings value="true"/>
        <ignore-errors value="true"/>
        <no-step-log value="true"/>
    </report>

</configuration>
-->

<routes xmlns:xsi="http://www.w3.org/2001/XMLSchema-instance" xsi:noNamespaceSchemaLocation="http://sumo.dlr.de/xsd/routes_file.xsd">

<vType id="car" accel="0.8" decel="4.5" sigma="0.5" length="5" minGap="2.5" maxSpeed="16.67"  color="255,255,255" guiShape="passenger"/>
<vType id="ambu" accel="0.8" decel="4.5" sigma="0.5" length="7" minGap="2.5" maxSpeed="25" color="red" guiShape="emergency"/>
<vType id="bus" accel="0.8" decel="4.5" sigma="0.5" length="10" minGap="2.5" maxSpeed="15.67" color="122,255,122" guiShape="bus"/>
<vType id="fire" accel="0.8" decel="4.5" sigma="0.5" length="10" minGap="3" maxSpeed="25" color="red" guiShape="firebrigade"/>
<vType id="motorcycle" accel="0.8" decel="4.5" sigma="0.5" length="2" minGap="1" maxSpeed="16.67" color="0,0,255" guiShape="motorcycle"/>
<vType id="police" accel="0.8" decel="4.5" sigma="0.5" length="7" minGap="3" maxSpeed="25" color="169,169,169" guiShape="police"/>
<vType id="truck" accel="0.8" decel="3.5" sigma="0.5" length="11" minGap="3" maxSpeed="12.67" color="red" guiShape="truck"/>
 
    <vehicle id="0"  type="truck"  depart="0.00">
        <route edges="R38 R41 R90 R82 R77 R75 171185159#5 171185159#6 171185159#7 171185159#8 171185159#9 547667474"/>
    </vehicle>
    <vehicle id="1"  type="bus" depart="0.00">
        <route edges="-521511817#5 -521511818#1 -521511808#2 -521511808#1 -521511808#0 -508777085#0 379711248#5 379711248#0 99621717#0 99621717#1 99621717#2 99621717#3 384145607 384145608#0 384145608#1 384145606#0 R57 R55 R83 R80 R79"/>
    </vehicle>
    <vehicle id="3"  type="bus" depart="1.00">
        <route edges="521511808#2 -521511808#2 -521511808#1 -521511808#0 -508777085#0 379711248#5 379711248#0 379711248#1 R46 R44 R37 R7 R9 R12 547746530#1 547746530#2 547746530#3 547746530#4 547746534#1"/>
    </vehicle>
    <vehicle id="4"  type="motorcycle" depart="1.00">
        <route edges="451690840#3 -451690840#3 R70 R68 R73 R78 R79 R84 R56 R58"/>
    </vehicle>
    <vehicle id="5"  type="motorcycle"  depart="1.00">
        <route edges="R48 R44 R41 R90 R82 R77 R75 171185159#5 171185159#6 171185159#7 171185159#8 171185159#9 171185159#10 171185159#11 171185157#0 -171185157#0"/>
    </vehicle>
    <vehicle id="6"  type="motorcycle"  depart="2.00">
        <route edges="R4 R5 R9 R14 R15 R103 -133305551#1 R97 R100"/>
    </vehicle>
    <vehicle id="7"   type="truck" depart="2.00">
        <route edges="384145608#1 -384145608#1 -384145608#0 -384145607 -99621717#3 -99621717#2 -99621717#1 -99621717#0 379711248#1 R46 R44 R37 R7 R9 R12 547746530#1 -547746539#5 -547746536#0"/>
    </vehicle>
    <vehicle id="8"  type="ambu" depart="2.00">
        <route edges="-547665363#1 -547665363#0 -547665365#0 -547665359#0 -171185159#7 -171185159#6 -171185159#5 R76 R78 R81 R89 R42 R37 R7 R9 R10"/>
    </vehicle>
    <vehicle id="9" depart="3.00">
        <route edges="99621794#0 99621794#1 -384145608#1 -384145608#0 -384145607 -99621717#3 -99621717#2 -99621717#1 -99621717#0 379711248#1 R46 R44 R37 R7 R6 R2"/>
    </vehicle>
    <vehicle id="10"  type="motorcycle"  depart="3.00">
        <route edges="R88 R87 R61 R4 R5"/>
    </vehicle>
    <vehicle id="11"  type="motorcycle"  depart="3.00">
        <route edges="-521511820 -99621717#1 -99621717#0 379711248#1 R46 R44 R37 R40"/>
    </vehicle>
    <vehicle id="12"  type="bus" depart="4.00">
        <route edges="-521511808#2 -521511808#1 -521511808#0 -508777085#0 379711248#5 379711248#0 99621717#0 99621717#1 99621717#2 99621717#3 384145607 384145608#0 384145608#1 -99621794#1 99621794#1"/>
    </vehicle>
    <vehicle id="13"   type="motorcycle" depart="4.00">
        <route edges="-521539874#0 99621794#1 -384145608#1 -384145608#0 -384145607 -99621717#3 -99621717#2 521511820"/>
    </vehicle>
    <vehicle id="15"  type="truck"  depart="5.00">
        <route edges="-384145608#1 -384145608#0 -384145607 -99621717#3 -99621717#2 -99621717#1 -99621717#0 379711248#1 379711248#2 379711248#3 379711248#4 508777085#0 508777085#1 508777085#2 508777085#3 508777391#0 508777391#1 -521511821#12 -521511821#11 -521511821#10 521511784"/>
    </vehicle>
    <vehicle id="16"   type="motorcycle" depart="5.00">
        <route edges="R90 R89 R42 R43 R45 379711248#2 379711248#3 379711248#4 508777085#0 508777085#1 -521511733#1 -521511733#0 521511735#1 -521511736"/>
    </vehicle>
    <vehicle id="18"   type="motorcycle" depart="6.00">
        <route edges="R91 R49 R45 379711248#2 379711248#3 379711248#4 508777085#0 508777085#1 508777085#2 508777085#3 508777391#0 508777391#1 508777391#2 521511756#0 521511756#1 521511756#2 521511756#3 521511756#4 521511756#5"/>
    </vehicle>
    <vehicle id="19"   type="motorcycle" depart="6.00">
        <route edges="R61 R62 R86 R42 R43 R45 379711248#2 379711248#3 379711248#4 508777085#0 508777085#1 508777085#2 508777085#3 508777391#0 508777391#1 -521511821#12 -521511821#11 -521511821#10 -521511821#9 -521511821#8 -521511821#7 -521511821#6 -521511821#5 -521511821#4"/>
    </vehicle>
    <vehicle id="20"  type="police" depart="6.00">
        <route edges="-547665371#1 -547665371#0 -547665369#0 -171185159#6 -171185159#5 R76 R78 R79 R84 R56 R58 -384145606#0 -384145608#1 -384145608#0 -384145607 -99621717#3 -99621717#2 -99621717#1 -99621717#0 379711248#1 379711248#2 379711248#3 379711248#4 508777085#0 508777085#1 508777085#2 508777085#3 508777391#0 508777391#1 -521511821#12 -521511821#11 -521511821#10 -521511821#9 -521511821#8 -521511821#7 -521511821#6 -521511821#5 -521511821#4"/>
    </vehicle>
    <vehicle id="21"   type="motorcycle" depart="7.00">
        <route edges="-547665379#1 -547665371#1 -547665371#0 -547665369#0 171185159#7 171185159#8 171185159#9 171185159#10 171185159#11 171185159#12 171185159#13"/>
    </vehicle>
    <vehicle id="22"   type="motorcycle" depart="7.00">
        <route edges="-521511756#5 -521511756#4 -521511756#3 -521511756#2 -521511756#1 -521511756#0 -508777391#2 -508777391#1 -508777391#0 -508777085#3 -508777085#2 -508777085#1 -508777085#0 379711248#5 379711248#0 379711248#1 R46 R50 R32 R35 R16 R15"/>
    </vehicle>
    <vehicle id="23"  type="bus" depart="7.00">
        <route edges="521511773 521511772 379711242#1 379711242#2 379711248#4 379711248#5 379711248#0 99621717#0 99621717#1 99621717#2 99621717#3 384145607 384145608#0 384145608#1 384145606#0 R57 R55 R83 R80 R77 R75 171185159#5 171185159#6 171185159#7 547665359#0 547665365#0"/>
    </vehicle>
    <vehicle id="25"  type="motorcycle"  depart="8.00">
        <route edges="R47 R52 R83 R80 R77 R75 -547665379#1"/>
    </vehicle>
    <vehicle id="26"   type="motorcycle" depart="8.00">
        <route edges="-521511817#0 -521511808#0 -508777085#0 379711248#5 379711248#0 379711248#1 R46 R44 R37 R7 R6 R3"/>
    </vehicle>
    <vehicle id="27"   type="motorcycle" depart="9.00">
        <route edges="R6 R3 R65 R69 547963936#0 R71"/>
    </vehicle>
    <vehicle id="28"  type="bus" depart="9.00">
        <route edges="-521511723 521511772 379711242#1 379711242#2 379711248#4 379711248#5 379711248#0 99621717#0 99621717#1 99621717#2 99621717#3 384145607 384145608#0 384145608#1 384145606#0 R57 R55 R83 R80 R77 R75 171185159#5 171185159#6 171185159#7 547665359#0 547665365#0 547665363#0 547665363#1"/>
    </vehicle>
    <vehicle id="29"  type="motorcycle"  depart="9.00">
        <route edges="R6 R5 R8"/>
    </vehicle>
    <vehicle id="30"   type="motorcycle" depart="10.00">
        <route edges="99621794#0 99621794#1 -384145608#1 -384145608#0 -384145607 -99621717#3 -99621717#2 -99621717#1 -99621717#0 379711248#1 R46 R50 R32 R35 R16 R17"/>
    </vehicle>
    <vehicle id="31"  type="truck"  depart="10.00">
        <route edges="547746536#1 -547746539#3 R11 R10 R8 R38 R41 R90 R82 R77 R75 171185159#5 171185159#6 171185159#7 171185159#8 171185159#9 171185159#10 171185159#11 171185157#0 171185157#1"/>
    </vehicle>
    <vehicle id="32" type="fire"  depart="10.00">
        <route edges="451690842 -451690840#3 R70 R66 R62 R86"/>
    </vehicle>
    <vehicle id="34"   type="motorcycle" depart="11.00">
        <route edges="-547963935 -547963936#0 R70 R66 R4 R5 R6"/>
    </vehicle>
    <vehicle id="35"   type="motorcycle" depart="11.00">
        <route edges="-521707479#0 -521707480#0 -384145608#0 -384145607 -99621717#3 -521707476#1 -521511820"/>
    </vehicle>
    <vehicle id="36"  type="bus" depart="12.00">
        <route edges="521511735#1 -521511736 -508777391#0 -508777085#3 -508777085#2 -508777085#1 -508777085#0 379711248#5 379711248#0 379711248#1 R46 R44 R41 R85 R61 R63"/>
    </vehicle>
    <vehicle id="37"   type="motorcycle" depart="12.00">
        <route edges="-547665379#1 -547665379#0 -547665377#0 547665373#1 -547665375#0 -451690840#3 R70 R68 R72"/>
    </vehicle>
    <vehicle id="38"   type="motorcycle" depart="12.00">
        <route edges="-451690840#5 451690840#5"/>
    </vehicle>
    <vehicle id="40" depart="13.00">
        <route edges="-521707480#0 384145608#1 384145606#0 R57 R55 R83 R80 R77 R74 R67 R66 R65"/>
    </vehicle>
    <vehicle id="41"   type="motorcycle" depart="13.00">
        <route edges="R89 R85 R61 R63"/>
    </vehicle>
    <vehicle id="42"  type="ambu" depart="14.00">
        <route edges="R8 R38 R43 R45 379711248#2 379711248#3 379711248#4 379711248#5 379711248#0 99621717#0 99621717#1 99621717#2 99621717#3 384145607 384145608#0 -384145608#0 -384145607 -99621717#3"/>
    </vehicle>
    <vehicle id="43"   type="truck" depart="14.00">
        <route edges="521511803#0 521511803#1 -521511786 521511821#12 -508777391#1 -508777391#0 -508777085#3 -508777085#2 -508777085#1 -508777085#0 379711248#5 379711248#0 379711248#1 R46 R44 R37 R7 R8"/>
    </vehicle>
    <vehicle id="44"   type="motorcycle" depart="14.00">
        <route edges="-521511773 521511808#2 -521511818#0"/>
    </vehicle>
    <vehicle id="45"   type="motorcycle" depart="15.00">
        <route edges="R20 R15 R36 R31 R49 R44 R41 R90 R87"/>
    </vehicle>
    <vehicle id="46"  type="bus" depart="15.00">
        <route edges="R68 R73 R78 R79 R84 R56 R58 -384145606#0 -384145608#1 -384145608#0 -384145607 -99621717#3 -99621717#2 -99621717#1 -99621717#0 379711248#1 379711248#2 379711248#3 379711248#4 508777085#0 508777085#1 508777085#2 508777085#3 508777391#0 508777391#1 -521511821#12 521511786 521511803#2 521511788"/>
    </vehicle>
    <vehicle id="47"   type="motorcycle" depart="15.00">
        <route edges="547665356#0 -547665356#0 171185159#9 171185159#10 547665355"/>
    </vehicle>
    <vehicle id="48"   type="motorcycle" depart="16.00">
        <route edges="R20 R15 R36 R31 R49 R45 379711248#2 379711248#3 379711248#4 508777085#0 521511808#0 521511817#0 521511817#1 521511817#2 521511817#3 521511815#0"/>
    </vehicle>
    <vehicle id="50"   type="motorcycle" depart="16.00">
        <route edges="-521539874#0 99621794#1 384145606#0 R57 R55 R83 R80 R81 R87 R61"/>
    </vehicle>
    <vehicle id="51"   type="motorcycle" depart="17.00">
        <route edges="R70 R68 R73 R75 171185159#5 171185159#6 171185159#7 171185159#8 171185159#9 171185159#10 171185159#11 171185157#0 -171185157#0"/>
    </vehicle>
    <vehicle id="52"   type="motorcycle" depart="17.00">
        <route edges="-521539874#0 99621794#1 384145606#0 R57 R55 R83 R80 R77 R75 -547665379#1 -547665371#1"/>
    </vehicle>
    <vehicle id="53"  type="motorcycle"  depart="17.00">
        <route edges="99621794#0 521539874#0"/>
    </vehicle>
    <vehicle id="54" depart="18.00">
        <route edges="R6 R3 R65 R69 451690840#3 -451690842"/>
    </vehicle>
    <vehicle id="55" depart="18.00">
        <route edges="R29 R26 R100 R22 R18"/>
    </vehicle>
    <vehicle id="56"   type="truck" depart="18.00">
        <route edges="451690840#5 -451690840#5 -451690840#4 -451690840#3 R70 R68 R73 R78 R79 R84 R56 R60 547669017#1"/>
    </vehicle>
    <vehicle id="57" depart="19.00">
        <route edges="-171185159#5 R76 R74 R67 R69"/>
    </vehicle>
    <vehicle id="58"  type="bus" depart="19.00">
        <route edges="521511756#5 -521511756#5 -521511756#4 -521511756#3 -521511756#2 -521511756#1 -521511756#0 -508777391#2 -508777391#1 -508777391#0 -508777085#3 -508777085#2 -508777085#1 -508777085#0 379711248#5 379711248#0 99621717#0 99621717#1 99621717#2 99621717#3 384145607 384145608#0 384145608#1 384145606#0 R57 R55 R83 R80 R77 R74"/>
    </vehicle>
    <vehicle id="59" type="car" depart="19.00">
        <route edges="-547746536#1 547746539#5 -547746530#1 R11 R10 R6 R2"/>
    </vehicle>
    <vehicle id="60" depart="20.00">
        <route edges="-99621794#1 99621794#1 -384145608#1 384145608#1"/>
    </vehicle>
    <vehicle id="61"   type="motorcycle" depart="20.00">
        <route edges="R8 R7 R9 R14 R19"/>
    </vehicle>
    <vehicle id="63" depart="21.00">
        <route edges="R85 R86 R42 R43 R50 R32 R35 R16 R15"/>
    </vehicle>
    <vehicle id="64"  type="ambu" depart="21.00">
        <route edges="R80 R81 R89 R42 R43 R50 R32 R29 R26 R25"/>
    </vehicle>
    <vehicle id="65" depart="21.00">
        <route edges="133305549#0 R104 R16 R13 R10 R6 R2"/>
    </vehicle>
    <vehicle id="66"   type="motorcycle" depart="22.00">
        <route edges="547665379#1 R76 R78 R81 R87 R61"/>
    </vehicle>
    <vehicle id="67"  type="bus" depart="22.00">
        <route edges="-521511791 -521511782 521511821#8 521511821#9 521511821#10 521511821#11 521511821#12 -508777391#1 -508777391#0 -508777085#3 -508777085#2 -508777085#1 -508777085#0 379711248#5 379711248#0 379711248#1 R46 R50 R32 R35 R36"/>
    </vehicle>
    <vehicle id="69" depart="23.00">
        <route edges="R3 R4 R5 R9"/>
    </vehicle>
    <vehicle id="70" depart="23.00">
        <route edges="-521511732 521511733#1 -508777085#1 521511808#0 521511817#0 521511817#1 521511809"/>
    </vehicle>
    <vehicle id="72"   type="truck" depart="24.00">
        <route edges="R90 R82 R79 R84 R56 R58 -384145606#0 -99621794#1"/>
    </vehicle>
    <vehicle id="73" depart="24.00">
        <route edges="R74 R67 R66 R4 R3"/>
    </vehicle>
    <vehicle id="75" depart="25.00">
        <route edges="R90 R89 R42 R43 R45 379711248#2 379711248#3 379711248#4 508777085#0 521511808#0 521511808#1 521511808#2 -521511818#0 521511772 379711242#1"/>
    </vehicle>
    <vehicle id="76"  type="bus" depart="25.00">
        <route edges="R48 R50 R32 R35 R16 R17 R21"/>
    </vehicle>
    <vehicle id="77"   type="motorcycle" depart="25.00">
        <route edges="521707476#0 521707476#1 99621717#3 384145607 384145608#0 384145608#1 384145606#0 R57 R55 R83 R80 R77 R75 171185159#5 171185159#6 171185159#7 171185159#8 547665356#0 547665356#1"/>
    </vehicle>
    <vehicle id="78"   type="motorcycle" depart="26.00">
        <route edges="R61 R65 R69 451690840#3 -451690842"/>
    </vehicle>
    <vehicle id="79"  type="fire" depart="26.00">
        <route edges="547665371#1 547665379#1 R76 R78 R81 R89 R42 R43 R50 R32 R29 R26 R98"/>
    </vehicle>
    <vehicle id="80"   type="motorcycle" depart="26.00">
        <route edges="R73 R78 R81 R89 R42 R37 R7"/>
    </vehicle>
    <vehicle id="81" depart="27.00">
        <route edges="R6 R5 R8 R38 R43 R45 379711248#2 379711248#3 379711248#4 508777085#0 521511808#0 521511808#1 521511808#2 -521511723"/>
    </vehicle>
    <vehicle id="82" type="car"  depart="27.00">
        <route edges="R6 R3 R65 R68 R73 R74"/>
    </vehicle>
    <vehicle id="83" depart="27.00">
        <route edges="521511818#0 -521511808#2 -521511808#1 -521511808#0 -508777085#0 379711248#5 379711248#0 99621717#0 99621717#1 99621717#2 99621717#3 384145607 384145608#0 384145608#1 -99621794#1 -99621794#0"/>
    </vehicle>
    <vehicle id="84" depart="28.00">
        <route edges="R6 R5 R8 R38 R43 R45 379711248#2 379711248#3 379711248#4 508777085#0 508777085#1 508777085#2 508777085#3 508777391#0 508777391#1 508777391#2 521511756#0 521511756#1 521511756#2 521511756#3 521511756#4 -521511742#1 -521511742#0 521511743#2"/>
    </vehicle>
    <vehicle id="85" depart="28.00">
        <route edges="R73 R75 171185159#5 171185159#6 171185159#7 171185159#8 171185159#9 171185159#10 171185159#11"/>
    </vehicle>
    <vehicle id="86"   type="motorcycle" depart="28.00">
        <route edges="R62 R88 R82 R79 R84 R56 R58 -384145606#0 -384145608#1 -384145608#0 -384145607 -99621717#3"/>
    </vehicle>
    <vehicle id="87"   type="motorcycle" depart="29.00">
        <route edges="547746536#1 -547746539#3 R11 R10 R8 R38 R41 R85 R86"/>
    </vehicle>
    <vehicle id="88"  type="bus" depart="29.00">
        <route edges="R71 R73 R78 R79 R84 R56 R58 -384145606#0 -384145608#1 -384145608#0 -384145607 -99621717#3 -99621717#2 -99621717#1 -99621717#0 379711248#1 379711248#2 379711248#3 379711248#4 508777085#0 508777085#1 508777085#2 508777085#3 508777391#0 508777391#1 508777391#2"/>
    </vehicle>
    <vehicle id="89"   type="motorcycle" depart="29.00">
        <route edges="-547665360#0 -547665356#0 -171185159#8 -171185159#7 -171185159#6 -171185159#5 R76 R78 R81 R89 R42 R43 R50 R32 R35 R103 -133305551#1 R97"/>
    </vehicle>
    <vehicle id="94"  type="car" depart="31.00">
        <route edges="R62 R86 R42 R43 R50 R32 R29 R26 R100 R102"/>
    </vehicle>
    <vehicle id="95"   type="motorcycle" depart="31.00">
        <route edges="547746536#1 -547746539#3 R11 R10 R8 R38 R41 R90 R82 R77 R75 171185159#5 171185159#6 171185159#7 171185159#8 171185159#9 171185159#10 171185159#11 171185157#0"/>
    </vehicle>
    <vehicle id="96"   type="truck" depart="32.00">
        <route edges="R71 R73 R78 R79 R84 R56 R58 -384145606#0 -384145608#1 -384145608#0 -384145607 -99621717#3 -99621717#2 -99621717#1 -99621717#0 379711248#1 379711248#2 379711248#3 379711248#4 508777085#0 508777085#1 508777085#2 508777085#3 508777391#0 508777391#1 -521511821#12 -521511821#11 -521511821#10 -521511821#9 -521511821#8 -521511821#7 -521511821#6 -521511821#5 -521511821#4 -521511821#3 -521511821#2 -521511821#1 -521511821#0"/>
    </vehicle>
    <vehicle id="97" type="fire"  depart="32.00">
        <route edges="R85 R86 R42 R43 R45 379711248#2 379711244#0 379711244#1"/>
    </vehicle>
    <vehicle id="98"  type="truck"  depart="32.00">
        <route edges="521511803#0 521511803#1 -521511786 521511821#12 -508777391#1 -508777391#0 -508777085#3 -508777085#2 -508777085#1 -508777085#0 379711248#5 379711248#0 99621717#0 99621717#1 99621717#2 99621717#3 384145607 384145608#0 384145608#1 384145606#0 R57 R55 R83 R80 R77 R75 171185159#5 171185159#6 171185159#7 171185159#8 171185159#9 547667474 547667475#1 -547667475#1"/>
    </vehicle>
    <vehicle id="100"  type="motorcycle"  depart="33.00">
        <route edges="-521707479#1 -521707479#0 -521707480#0 384145608#1 384145606#0 R57"/>
    </vehicle>
    <vehicle id="101" depart="33.00">
        <route edges="99621717#3 384145607 384145608#0 -384145608#0 -384145607 -99621717#3 -99621717#2 -99621717#1 -99621717#0 379711248#1 R46 R50 R92 R93"/>
    </vehicle>
    <vehicle id="102"   type="motorcycle" depart="34.00">
        <route edges="R20 R15 R36 R31 R49 R45 379711248#2 379711248#3 379711248#4 508777085#0 508777085#1 -521511733#1 -521511733#0 521511735#1 -521511736"/>
    </vehicle>
    <vehicle id="103" depart="34.00">
        <route edges="99621794#0 99621794#1 384145606#0 R57 R55 R83 R80 R81 R87 R88"/>
    </vehicle>
    <vehicle id="104"  type="bus" depart="34.00">
        <route edges="-521511813#2 -521511813#1 521511821#4 521511821#5 521511821#6 521511821#7 521511821#8 521511821#9 521511821#10 521511821#11 521511821#12 -508777391#1 -508777391#0 -508777085#3 -508777085#2 -508777085#1 -508777085#0 379711248#5 379711248#0 99621717#0 99621717#1 99621717#2 99621717#3 384145607 384145608#0 384145608#1 384145606#0 R57 R55 R83 R80 R77 R75 171185159#5 171185159#6 547665369#0 547665369#1 -547665369#1"/>
    </vehicle>
    <vehicle id="105"   type="motorcycle" depart="35.00">
        <route edges="R3 R62 R86 R42 R43 R50 R32 R29 R26 R98 133305551#1"/>
    </vehicle>
    <vehicle id="106" type="ambu"  depart="35.00">
        <route edges="-508777391#3 -508777391#2 -508777391#1 -508777391#0 -508777085#3 -508777085#2 -508777085#1 -508777085#0 379711248#5 379711248#0 379711248#1 R46 R44 R37 R7 R6 R2"/>
    </vehicle>
    <vehicle id="107"  type="bus" depart="35.00">
        <route edges="547665371#1"/>
    </vehicle>
    <vehicle id="108"   type="motorcycle" depart="36.00">
        <route edges="R15 R16 R13 R10 R6"/>
    </vehicle>
    <vehicle id="109"   type="motorcycle" depart="36.00">
        <route edges="R88 R89 R42 R37 R7 R6"/>
    </vehicle>
    <vehicle id="110"   type="motorcycle" depart="36.00">
        <route edges="R69 R70 R66 R4"/>
    </vehicle>
    <vehicle id="111" depart="37.00">
        <route edges="547746534#0 -547746530#4 -547746530#3 -547746530#2 -547746530#1 R11 R10 R8 R34"/>
    </vehicle>
    <vehicle id="112"   type="motorcycle" depart="37.00">
        <route edges="547665371#1 547665379#1 R76 R78 R81 R89 R42 R37 R7 R9 R12 547746530#1 547746530#2 547746530#3 547746530#4 -547746534#0"/>
    </vehicle>
    <vehicle id="113" depart="37.00">
        <route edges="451690842 -451690840#3 547963936#0 547963935"/>
    </vehicle>
    <vehicle id="114"   type="truck" depart="38.00">
        <route edges="521511821#0 521511821#1 521511821#2 521511821#3 521511821#4 521511821#5 521511821#6 521511821#7 521511821#8 521511821#9 521511821#10 521511821#11 521511821#12 -508777391#1 -508777391#0 -508777085#3 -508777085#2 -508777085#1 -508777085#0 379711248#5 379711248#0 379711248#1 R46 R44 R41 R85 R61 R63"/>
    </vehicle>
    <vehicle id="115" depart="38.00">
        <route edges="-99621717#3 99621717#3 384145607 384145608#0 384145608#1 384145606#0 R57 R55 R83 R80 R77 R75 171185159#5 -171185159#5"/>
    </vehicle>
    <vehicle id="116" depart="38.00">
        <route edges="547667477#1 -547667475#1 -547667474 -171185159#9 -171185159#8 -171185159#7 547665369#0 547665369#1 547665371#1 -547665379#0 547665379#0"/>
    </vehicle>
    <vehicle id="118"   type="motorcycle" depart="39.00">
        <route edges="R47 R52 R83 R80 R81 R89 R85"/>
    </vehicle>
    <vehicle id="119"  type="bus" depart="39.00">
        <route edges="R91 R49 R45 379711248#2 379711248#3 379711248#4 508777085#0 508777085#1 508777085#2 508777085#3 508777391#0 508777391#1 508777391#2 521511756#0 521511756#1 521511756#2 521511756#3 -521511740 521511740"/>
    </vehicle>
    <vehicle id="121" type="ambu"  depart="40.00">
        <route edges="-171185159#8 -171185159#7 -171185159#6 -171185159#5 R76 R78 R79 R84 R56 R58 -384145606#0 -99621794#1 521539874#0 -521539874#0"/>
    </vehicle>
    <vehicle id="122" depart="40.00">
        <route edges="R90 R89 R42 R37 R7 R9 R12 547746530#1 547746530#2 547746530#3 -547746530#3"/>
    </vehicle>
    <vehicle id="123" type="car"  depart="41.00">
        <route edges="R9 R10 R8 R38 R43 R45 379711248#2 379711248#3 379711248#4 508777085#0 508777085#1 508777085#2"/>
    </vehicle>
    <vehicle id="124" type="car"  depart="41.00">
        <route edges="R75 R76 R78 R79 R84 R56 R58 -384145606#0 -384145608#1 -384145608#0 -384145607 -99621717#3"/>
    </vehicle>
    <vehicle id="125"  type="bus" depart="41.00">
        <route edges="-521511821#11 521511821#11 521511821#12 -508777391#1 -508777391#0 -508777085#3 -508777085#2 -508777085#1 -508777085#0 379711248#5 379711248#0 99621717#0 99621717#1 99621717#2 99621717#3 384145607 384145608#0 384145608#1 384145606#0 R57 R55 R83 R80 R77 R75 171185159#5 171185159#6 171185159#7 547665359#0 547665365#0 547665363#0"/>
    </vehicle>
    <vehicle id="126"   type="motorcycle" depart="42.00">
        <route edges="R1 R3 R63"/>
    </vehicle>
    <vehicle id="127" depart="42.00">
        <route edges="547665379#1 R76 R74 R67 R66 R4 R5"/>
    </vehicle>
    <vehicle id="128" depart="42.00">
        <route edges="R41 R90 R82 R77 R74 R72"/>
    </vehicle>
    <vehicle id="129" type="fire"  depart="43.00">
        <route edges="R96 R91 R49 R44 R41 R90 R82 R77 R75 -547665379#1"/>
    </vehicle>
    <vehicle id="130" depart="43.00">
        <route edges="R61 R4 R3"/>
    </vehicle>
    <vehicle id="131"   type="motorcycle" depart="43.00">
        <route edges="-521511815#0 -521511817#3 -521511817#2 -521511817#1 -521511817#0 -521511808#0 -508777085#0 379711248#5 379711248#0 379711248#1 R46 R50 R92"/>
    </vehicle>
    <vehicle id="132" type="ambu"  depart="44.00">
        <route edges="R48 R44 R41 R90 R82 R77 R75 171185159#5 171185159#6 171185159#7 171185159#8 171185159#9 171185159#10 171185159#11 171185157#0"/>
    </vehicle>
    <vehicle id="133"  type="bus" depart="44.00">
        <route edges="-547665371#1 547665371#1 547665379#1"/>
    </vehicle>
    <vehicle id="134"  type="police" depart="44.00">
        <route edges="99621794#0 99621794#1 -384145608#1 -384145608#0 -384145607 -99621717#3 -99621717#2 -99621717#1 -99621717#0 379711248#1 R46 R44 R37 R7 R6 R2"/>
    </vehicle>
    <vehicle id="135" depart="45.00">
        <route edges="R89 R90 R82 R77 R75 171185159#5 171185159#6 171185159#7 171185159#8 171185159#9 171185159#10 171185159#11 171185157#0 171185157#1"/>
    </vehicle>
    <vehicle id="137" type="car"  depart="45.00">
        <route edges="-547746539#4 -547746539#3 R11 R10 R8 R38 R43 R45 379711248#2 379711248#3 379711248#4 379711248#5 379711248#0 99621717#0 99621717#1 99621717#2 99621717#3 384145607 384145608#0 384145608#1 -384145608#1"/>
    </vehicle>
    <vehicle id="138"   type="motorcycle" depart="46.00">
        <route edges="R39 R7 R9 R12 547746530#1 547746530#2 547746547"/>
    </vehicle>
    <vehicle id="139"   type="truck" depart="46.00">
        <route edges="R98 133305551#1 R104 R36 R31 R49 R45 379711248#2 379711248#3 379711248#4 379711248#5 379711248#0 99621717#0 99621717#1 99621717#2 99621717#3 384145607 384145608#0 384145608#1"/>
    </vehicle>
    <vehicle id="140"  type="bus" depart="46.00">
        <route edges="99621794#1 384145606#0 -547669017#1"/>
    </vehicle>
    <vehicle id="141"   type="motorcycle" depart="47.00">
        <route edges="R39 R7 R6 R2"/>
    </vehicle>
    <vehicle id="142"   type="motorcycle" depart="47.00">
        <route edges="R35 R16 R13 R10 R6 R5"/>
    </vehicle>
    <vehicle id="143"   type="motorcycle" depart="47.00">
        <route edges="R89 R42 R43 R50 R32 R35"/>
    </vehicle>
    <vehicle id="144" depart="48.00">
        <route edges="-547746534#1 -547746530#4 -547746530#3 -547746530#2 -547746530#1 R11 R10 R8 R38 R43 R45 379711248#2 379711248#3 379711248#4 379711248#5 379711248#0 99621717#0 99621717#1 99621717#2 -521707476#1 -521511820"/>
    </vehicle>
    <vehicle id="145"  type="car" depart="48.00">
        <route edges="-521511817#2 -521511817#1 -521511817#0 -521511808#0 -508777085#0 379711248#5 379711248#0 99621717#0 99621717#1 99621717#2 99621717#3 384145607 384145608#0 384145608#1 384145606#0 R57 R55 R83 R80 R77 R75 171185159#5 171185159#6 171185159#7 171185159#8 171185159#9 171185159#10 171185159#11 171185159#12 171185159#13"/>
    </vehicle>
    <vehicle id="146"   type="motorcycle" depart="48.00">
        <route edges="R87 R86 R42 R43 R45 379711248#2 379711244#0 379711244#1"/>
    </vehicle>
    <vehicle id="147"  type="bus" depart="49.00">
        <route edges="-547665355 -171185159#10 -171185159#9 -171185159#8 -171185159#7 -171185159#6 -171185159#5 R76 R78 R81 R89 R42 R37 R7 R9 R12 547746530#1 547746530#2 547746530#3 547746530#4 547746534#1"/>
    </vehicle>
    <vehicle id="148" depart="49.00">
        <route edges="521511811#2"/>
    </vehicle>
    <vehicle id="149"  type="ambu" depart="49.00">
        <route edges="99621794#1 384145606#0 R57 R55 R83 R80 R77 R74 R67 R66"/>
    </vehicle>
    <vehicle id="151" depart="50.00">
        <route edges="R1 R2"/>
    </vehicle>
    <vehicle id="152"   type="truck" depart="50.00">
        <route edges="-521511818#0 521511772 379711242#1 379711242#2 379711248#4 379711248#5 379711248#0 99621717#0 99621717#1 99621717#2 99621717#3 384145607 384145608#0 384145608#1 384145606#0 R57 R55 R83 R80 R77 R75 171185159#5 171185159#6 171185159#7 171185159#8 171185159#9 171185159#10 171185159#11 -171185159#11"/>
    </vehicle>
    <vehicle id="154" depart="51.00">
        <route edges="-521511800#1 -521511800#0 521511821#3 521511821#4 521511821#5 521511821#6 521511821#7 521511821#8 521511821#9 521511821#10 521511821#11 521511821#12 -508777391#1 -508777391#0 -508777085#3 -508777085#2 -508777085#1 -508777085#0 379711248#5 379711248#0 379711248#1 R46 R44 R41 R85 R61 R63"/>
    </vehicle>
    <vehicle id="155"   type="motorcycle" depart="51.00">
        <route edges="451690842 -451690840#3 R70 R66 R4 R5"/>
    </vehicle>
    <vehicle id="156" depart="52.00">
        <route edges="99621794#0 99621794#1 384145606#0 R57 R55 R83 R80 R77 R75 -547665379#1 -547665379#0 -547665377#0"/>
    </vehicle>
    <vehicle id="157"  type="bus" depart="52.00">
        <route edges="-171185159#6 171185159#6 171185159#7 171185159#8 171185159#9 171185159#10 171185159#11 171185157#0 171185157#1"/>
    </vehicle>
    <vehicle id="158" type="bus"  depart="52.00">
        <route edges="R67 R69 451690840#3 -451690842"/>
    </vehicle>
    <vehicle id="159"   type="truck" depart="53.00">
        <route edges="R5 R8 R38 R43 R45 379711248#2 379711248#3 379711248#4 379711248#5 379711248#0 99621717#0 99621717#1 99621717#2 99621717#3 384145607 384145608#0 384145608#1 -99621794#1 521539874#0 -521539874#0"/>
    </vehicle>